# generated using pymatgen
data_InGa5O9
_symmetry_space_group_name_H-M   'P 1'
_cell_length_a   5.14615472
_cell_length_b   5.14562417
_cell_length_c   13.81247830
_cell_angle_alpha   90.00061299
_cell_angle_beta   90.00012807
_cell_angle_gamma   120.00000972
_symmetry_Int_Tables_number   1
_chemical_formula_structural   InGa5O9
_chemical_formula_sum   'In2 Ga10 O18'
_cell_volume   316.75472353
_cell_formula_units_Z   2
loop_
 _symmetry_equiv_pos_site_id
 _symmetry_equiv_pos_as_xyz
  1  'x, y, z'
loop_
 _atom_site_type_symbol
 _atom_site_label
 _atom_site_symmetry_multiplicity
 _atom_site_fract_x
 _atom_site_fract_y
 _atom_site_fract_z
 _atom_site_occupancy
  Ga  Ga0  1  0.00000000  0.00000000  0.14900000  1
  Ga  Ga1  1  0.00000000  0.00000000  0.64900000  1
  In  In2  1  0.00000000  0.00000000  0.85100000  1
  Ga  Ga3  1  0.00000000  0.00000000  0.35100000  1
  Ga  Ga4  1  0.66666700  0.33333300  0.48233300  1
  In  In5  1  0.66666700  0.33333300  0.98233300  1
  Ga  Ga6  1  0.66666700  0.33333300  0.18433300  1
  Ga  Ga7  1  0.66666700  0.33333300  0.68433300  1
  Ga  Ga8  1  0.33333300  0.66666700  0.81566700  1
  Ga  Ga9  1  0.33333300  0.66666700  0.31566700  1
  Ga  Ga10  1  0.33333300  0.66666700  0.51766700  1
  Ga  Ga11  1  0.33333300  0.66666700  0.01766700  1
  O  O12  1  0.30800000  0.00000000  0.25000000  1
  O  O13  1  0.69200000  0.69200000  0.25000000  1
  O  O14  1  0.00000000  0.30800000  0.25000000  1
  O  O15  1  0.30800000  0.30800000  0.75000000  1
  O  O16  1  0.00000000  0.69200000  0.75000000  1
  O  O17  1  0.69200000  0.00000000  0.75000000  1
  O  O18  1  0.97466600  0.33333300  0.58333300  1
  O  O19  1  0.35866700  0.02533300  0.58333300  1
  O  O20  1  0.66666700  0.64133300  0.58333300  1
  O  O21  1  0.97466700  0.64133300  0.08333300  1
  O  O22  1  0.66666600  0.02533300  0.08333300  1
  O  O23  1  0.35866700  0.33333300  0.08333300  1
  O  O24  1  0.64133300  0.66666700  0.91666700  1
  O  O25  1  0.02533300  0.35866700  0.91666700  1
  O  O26  1  0.33333300  0.97466700  0.91666700  1
  O  O27  1  0.64133300  0.97466700  0.41666700  1
  O  O28  1  0.33333300  0.35866700  0.41666700  1
  O  O29  1  0.02533300  0.66666700  0.41666700  1
