# generated using pymatgen
data_Al7In5(GaO6)4
_symmetry_space_group_name_H-M   'P 1'
_cell_length_a   24.38443677
_cell_length_b   6.21952700
_cell_length_c   6.10790322
_cell_angle_alpha   89.99970380
_cell_angle_beta   104.67906048
_cell_angle_gamma   90.00013800
_symmetry_Int_Tables_number   1
_chemical_formula_structural   Al7In5(GaO6)4
_chemical_formula_sum   'Al14 In10 Ga8 O48'
_cell_volume   896.08777075
_cell_formula_units_Z   2
loop_
 _symmetry_equiv_pos_site_id
 _symmetry_equiv_pos_as_xyz
  1  'x, y, z'
loop_
 _atom_site_type_symbol
 _atom_site_label
 _atom_site_symmetry_multiplicity
 _atom_site_fract_x
 _atom_site_fract_y
 _atom_site_fract_z
 _atom_site_occupancy
  Ga  Ga0  1  0.45450000  0.00000000  0.20500000  1
  Ga  Ga1  1  0.45450000  0.50000000  0.20500000  1
  Al  Al2  1  0.95450000  0.00000000  0.20500000  1
  Al  Al3  1  0.95450000  0.50000000  0.20500000  1
  Al  Al4  1  0.04550000  0.00000000  0.79500000  1
  Al  Al5  1  0.04550000  0.50000000  0.79500000  1
  Ga  Ga6  1  0.54550000  0.00000000  0.79500000  1
  In  In7  1  0.54550000  0.50000000  0.79500000  1
  Ga  Ga8  1  0.20450000  0.25000000  0.20500000  1
  Al  Al9  1  0.20450000  0.75000000  0.20500000  1
  Al  Al10  1  0.70450000  0.25000000  0.20500000  1
  Al  Al11  1  0.70450000  0.75000000  0.20500000  1
  Al  Al12  1  0.29550000  0.25000000  0.79500000  1
  Al  Al13  1  0.29550000  0.75000000  0.79500000  1
  Al  Al14  1  0.79550000  0.25000000  0.79500000  1
  Ga  Ga15  1  0.79550000  0.75000000  0.79500000  1
  In  In16  1  0.42050000  0.25000000  0.68600000  1
  Ga  Ga17  1  0.42050000  0.75000000  0.68600000  1
  Al  Al18  1  0.92050000  0.25000000  0.68600000  1
  In  In19  1  0.92050000  0.75000000  0.68600000  1
  Ga  Ga20  1  0.07950000  0.25000000  0.31400000  1
  Al  Al21  1  0.07950000  0.75000000  0.31400000  1
  In  In22  1  0.57950000  0.25000000  0.31400000  1
  Al  Al23  1  0.57950000  0.75000000  0.31400000  1
  In  In24  1  0.17050000  0.00000000  0.68600000  1
  In  In25  1  0.17050000  0.50000000  0.68600000  1
  In  In26  1  0.67050000  0.00000000  0.68600000  1
  Al  Al27  1  0.67050000  0.50000000  0.68600000  1
  In  In28  1  0.32950000  0.00000000  0.31400000  1
  In  In29  1  0.32950000  0.50000000  0.31400000  1
  Ga  Ga30  1  0.82950000  0.00000000  0.31400000  1
  In  In31  1  0.82950000  0.50000000  0.31400000  1
  O  O32  1  0.41350000  0.00000000  0.43700000  1
  O  O33  1  0.41350000  0.50000000  0.43700000  1
  O  O34  1  0.91350000  0.00000000  0.43700000  1
  O  O35  1  0.91350000  0.50000000  0.43700000  1
  O  O36  1  0.08650000  0.00000000  0.56300000  1
  O  O37  1  0.08650000  0.50000000  0.56300000  1
  O  O38  1  0.58650000  0.00000000  0.56300000  1
  O  O39  1  0.58650000  0.50000000  0.56300000  1
  O  O40  1  0.16350000  0.25000000  0.43700000  1
  O  O41  1  0.16350000  0.75000000  0.43700000  1
  O  O42  1  0.66350000  0.25000000  0.43700000  1
  O  O43  1  0.66350000  0.75000000  0.43700000  1
  O  O44  1  0.33650000  0.25000000  0.56300000  1
  O  O45  1  0.33650000  0.75000000  0.56300000  1
  O  O46  1  0.83650000  0.25000000  0.56300000  1
  O  O47  1  0.83650000  0.75000000  0.56300000  1
  O  O48  1  0.41750000  0.00000000  0.89000000  1
  O  O49  1  0.41750000  0.50000000  0.89000000  1
  O  O50  1  0.91750000  0.00000000  0.89000000  1
  O  O51  1  0.91750000  0.50000000  0.89000000  1
  O  O52  1  0.08250000  0.00000000  0.11000000  1
  O  O53  1  0.08250000  0.50000000  0.11000000  1
  O  O54  1  0.58250000  0.00000000  0.11000000  1
  O  O55  1  0.58250000  0.50000000  0.11000000  1
  O  O56  1  0.16750000  0.25000000  0.89000000  1
  O  O57  1  0.16750000  0.75000000  0.89000000  1
  O  O58  1  0.66750000  0.25000000  0.89000000  1
  O  O59  1  0.66750000  0.75000000  0.89000000  1
  O  O60  1  0.33250000  0.25000000  0.11000000  1
  O  O61  1  0.33250000  0.75000000  0.11000000  1
  O  O62  1  0.83250000  0.25000000  0.11000000  1
  O  O63  1  0.83250000  0.75000000  0.11000000  1
  O  O64  1  0.00200000  0.25000000  0.74300000  1
  O  O65  1  0.00200000  0.75000000  0.74300000  1
  O  O66  1  0.50200000  0.25000000  0.74300000  1
  O  O67  1  0.50200000  0.75000000  0.74300000  1
  O  O68  1  0.49800000  0.25000000  0.25700000  1
  O  O69  1  0.49800000  0.75000000  0.25700000  1
  O  O70  1  0.99800000  0.25000000  0.25700000  1
  O  O71  1  0.99800000  0.75000000  0.25700000  1
  O  O72  1  0.25200000  0.00000000  0.74300000  1
  O  O73  1  0.25200000  0.50000000  0.74300000  1
  O  O74  1  0.75200000  0.00000000  0.74300000  1
  O  O75  1  0.75200000  0.50000000  0.74300000  1
  O  O76  1  0.24800000  0.00000000  0.25700000  1
  O  O77  1  0.24800000  0.50000000  0.25700000  1
  O  O78  1  0.74800000  0.00000000  0.25700000  1
  O  O79  1  0.74800000  0.50000000  0.25700000  1
