# generated using pymatgen
data_Al5In5(GaO4)6
_symmetry_space_group_name_H-M   'P 1'
_cell_length_a   6.07762281
_cell_length_b   6.07668842
_cell_length_c   14.32330081
_cell_angle_alpha   90.01689980
_cell_angle_beta   90.00379216
_cell_angle_gamma   120.00255301
_symmetry_Int_Tables_number   1
_chemical_formula_structural   Al5In5(GaO4)6
_chemical_formula_sum   'Al5 In5 Ga6 O24'
_cell_volume   458.10312197
_cell_formula_units_Z   1
loop_
 _symmetry_equiv_pos_site_id
 _symmetry_equiv_pos_as_xyz
  1  'x, y, z'
loop_
 _atom_site_type_symbol
 _atom_site_label
 _atom_site_symmetry_multiplicity
 _atom_site_fract_x
 _atom_site_fract_y
 _atom_site_fract_z
 _atom_site_occupancy
  Al  Al0  1  0.66666700  0.33333300  0.04166700  1
  In  In1  1  0.00000000  0.00000000  0.95833300  1
  Al  Al2  1  0.16666700  0.83333300  0.16666700  1
  In  In3  1  0.16666700  0.33333300  0.16666700  1
  In  In4  1  0.66666700  0.83333300  0.16666700  1
  Ga  Ga5  1  0.66666700  0.33333300  0.29166700  1
  Ga  Ga6  1  0.83333300  0.16666700  0.50000000  1
  In  In7  1  0.83333400  0.66666700  0.50000000  1
  Ga  Ga8  1  0.33333300  0.16666700  0.50000000  1
  Al  Al9  1  0.00000000  0.00000000  0.33333300  1
  Ga  Ga10  1  0.00000000  0.00000000  0.70833300  1
  In  In11  1  0.33333300  0.66666700  0.62500000  1
  Ga  Ga12  1  0.50000000  0.50000000  0.83333300  1
  Al  Al13  1  0.50000000  0.00000000  0.83333300  1
  Al  Al14  1  0.00000000  0.50000000  0.83333300  1
  Ga  Ga15  1  0.66666700  0.33333300  0.66666700  1
  O  O16  1  0.49333300  0.50666700  0.08500000  1
  O  O17  1  0.49333400  0.98666700  0.08500000  1
  O  O18  1  0.01333300  0.50666700  0.08500000  1
  O  O19  1  0.66666700  0.33333300  0.91166700  1
  O  O20  1  0.00000000  0.00000000  0.08833300  1
  O  O21  1  0.17333300  0.82666700  0.91500000  1
  O  O22  1  0.17333300  0.34666700  0.91500000  1
  O  O23  1  0.65333300  0.82666700  0.91500000  1
  O  O24  1  0.16000000  0.84000000  0.41833300  1
  O  O25  1  0.16000000  0.32000000  0.41833300  1
  O  O26  1  0.68000000  0.84000000  0.41833300  1
  O  O27  1  0.33333300  0.66666700  0.24500000  1
  O  O28  1  0.66666700  0.33333300  0.42166700  1
  O  O29  1  0.84000000  0.16000000  0.24833300  1
  O  O30  1  0.84000000  0.68000000  0.24833300  1
  O  O31  1  0.32000000  0.16000000  0.24833300  1
  O  O32  1  0.82666700  0.17333300  0.75166700  1
  O  O33  1  0.82666700  0.65333300  0.75166700  1
  O  O34  1  0.34666700  0.17333300  0.75166700  1
  O  O35  1  0.00000000  0.00000000  0.57833300  1
  O  O36  1  0.33333300  0.66666700  0.75500000  1
  O  O37  1  0.50666700  0.49333300  0.58166700  1
  O  O38  1  0.50666700  0.01333300  0.58166700  1
  O  O39  1  0.98666700  0.49333300  0.58166700  1
