# generated using pymatgen
data_InGa5O9
_symmetry_space_group_name_H-M   'P 1'
_cell_length_a   10.29230944
_cell_length_b   5.14562417
_cell_length_c   13.81247830
_cell_angle_alpha   90.00061299
_cell_angle_beta   90.00012808
_cell_angle_gamma   120.00001528
_symmetry_Int_Tables_number   1
_chemical_formula_structural   InGa5O9
_chemical_formula_sum   'In4 Ga20 O36'
_cell_volume   633.50941106
_cell_formula_units_Z   4
loop_
 _symmetry_equiv_pos_site_id
 _symmetry_equiv_pos_as_xyz
  1  'x, y, z'
loop_
 _atom_site_type_symbol
 _atom_site_label
 _atom_site_symmetry_multiplicity
 _atom_site_fract_x
 _atom_site_fract_y
 _atom_site_fract_z
 _atom_site_occupancy
  Ga  Ga0  1  0.00000000  0.00000000  0.14900000  1
  In  In1  1  0.50000000  0.00000000  0.14900000  1
  Ga  Ga2  1  0.00000000  0.00000000  0.64900000  1
  In  In3  1  0.50000000  0.00000000  0.64900000  1
  Ga  Ga4  1  0.00000000  0.00000000  0.85100000  1
  In  In5  1  0.50000000  0.00000000  0.85100000  1
  Ga  Ga6  1  0.00000000  0.00000000  0.35100000  1
  In  In7  1  0.50000000  0.00000000  0.35100000  1
  Ga  Ga8  1  0.33333300  0.33333300  0.48233300  1
  Ga  Ga9  1  0.83333300  0.33333300  0.48233300  1
  Ga  Ga10  1  0.33333300  0.33333300  0.98233300  1
  Ga  Ga11  1  0.83333300  0.33333300  0.98233300  1
  Ga  Ga12  1  0.33333300  0.33333300  0.18433300  1
  Ga  Ga13  1  0.83333300  0.33333300  0.18433300  1
  Ga  Ga14  1  0.33333300  0.33333300  0.68433300  1
  Ga  Ga15  1  0.83333300  0.33333300  0.68433300  1
  Ga  Ga16  1  0.16666700  0.66666700  0.81566700  1
  Ga  Ga17  1  0.66666700  0.66666700  0.81566700  1
  Ga  Ga18  1  0.16666700  0.66666700  0.31566700  1
  Ga  Ga19  1  0.66666700  0.66666700  0.31566700  1
  Ga  Ga20  1  0.16666700  0.66666700  0.51766700  1
  Ga  Ga21  1  0.66666700  0.66666700  0.51766700  1
  Ga  Ga22  1  0.16666700  0.66666700  0.01766700  1
  Ga  Ga23  1  0.66666700  0.66666700  0.01766700  1
  O  O24  1  0.15400000  0.00000000  0.25000000  1
  O  O25  1  0.65400000  0.00000000  0.25000000  1
  O  O26  1  0.34600000  0.69200000  0.25000000  1
  O  O27  1  0.84600000  0.69200000  0.25000000  1
  O  O28  1  0.00000000  0.30800000  0.25000000  1
  O  O29  1  0.50000000  0.30800000  0.25000000  1
  O  O30  1  0.15400000  0.30800000  0.75000000  1
  O  O31  1  0.65400000  0.30800000  0.75000000  1
  O  O32  1  0.00000000  0.69200000  0.75000000  1
  O  O33  1  0.50000000  0.69200000  0.75000000  1
  O  O34  1  0.34600000  0.00000000  0.75000000  1
  O  O35  1  0.84600000  0.00000000  0.75000000  1
  O  O36  1  0.48733300  0.33333300  0.58333300  1
  O  O37  1  0.98733300  0.33333300  0.58333300  1
  O  O38  1  0.17933300  0.02533300  0.58333300  1
  O  O39  1  0.67933300  0.02533300  0.58333300  1
  O  O40  1  0.33333300  0.64133300  0.58333300  1
  O  O41  1  0.83333300  0.64133300  0.58333300  1
  O  O42  1  0.48733300  0.64133300  0.08333300  1
  O  O43  1  0.98733300  0.64133300  0.08333300  1
  O  O44  1  0.33333300  0.02533300  0.08333300  1
  O  O45  1  0.83333300  0.02533300  0.08333300  1
  O  O46  1  0.17933300  0.33333300  0.08333300  1
  O  O47  1  0.67933300  0.33333300  0.08333300  1
  O  O48  1  0.32066700  0.66666700  0.91666700  1
  O  O49  1  0.82066700  0.66666700  0.91666700  1
  O  O50  1  0.01266700  0.35866700  0.91666700  1
  O  O51  1  0.51266700  0.35866700  0.91666700  1
  O  O52  1  0.16666700  0.97466700  0.91666700  1
  O  O53  1  0.66666700  0.97466700  0.91666700  1
  O  O54  1  0.32066700  0.97466700  0.41666700  1
  O  O55  1  0.82066700  0.97466700  0.41666700  1
  O  O56  1  0.16666700  0.35866700  0.41666700  1
  O  O57  1  0.66666700  0.35866700  0.41666700  1
  O  O58  1  0.01266700  0.66666700  0.41666700  1
  O  O59  1  0.51266700  0.66666700  0.41666700  1
