# generated using pymatgen
data_Al(GaO2)3
_symmetry_space_group_name_H-M   'P 1'
_cell_length_a   12.33090082
_cell_length_b   3.04897900
_cell_length_c   5.82600631
_cell_angle_alpha   89.99983457
_cell_angle_beta   103.74678424
_cell_angle_gamma   90.00014186
_symmetry_Int_Tables_number   1
_chemical_formula_structural   Al(GaO2)3
_chemical_formula_sum   'Al2 Ga6 O12'
_cell_volume   212.76410043
_cell_formula_units_Z   2
loop_
 _symmetry_equiv_pos_site_id
 _symmetry_equiv_pos_as_xyz
  1  'x, y, z'
loop_
 _atom_site_type_symbol
 _atom_site_label
 _atom_site_symmetry_multiplicity
 _atom_site_fract_x
 _atom_site_fract_y
 _atom_site_fract_z
 _atom_site_occupancy
  Al  Al0  1  0.90900000  0.00000000  0.20500000  1
  Ga  Ga1  1  0.09100000  0.00000000  0.79500000  1
  Ga  Ga2  1  0.40900000  0.50000000  0.20500000  1
  Ga  Ga3  1  0.59100000  0.50000000  0.79500000  1
  Ga  Ga4  1  0.84100000  0.50000000  0.68600000  1
  Ga  Ga5  1  0.15900000  0.50000000  0.31400000  1
  Ga  Ga6  1  0.34100000  0.00000000  0.68600000  1
  Al  Al7  1  0.65900000  0.00000000  0.31400000  1
  O  O8  1  0.83500000  0.00000000  0.89000000  1
  O  O9  1  0.16500000  0.00000000  0.11000000  1
  O  O10  1  0.33500000  0.50000000  0.89000000  1
  O  O11  1  0.66500000  0.50000000  0.11000000  1
  O  O12  1  0.82700000  0.00000000  0.43700000  1
  O  O13  1  0.17300000  0.00000000  0.56300000  1
  O  O14  1  0.32700000  0.50000000  0.43700000  1
  O  O15  1  0.67300000  0.50000000  0.56300000  1
  O  O16  1  0.00400000  0.50000000  0.74300000  1
  O  O17  1  0.99600000  0.50000000  0.25700000  1
  O  O18  1  0.50400000  0.00000000  0.74300000  1
  O  O19  1  0.49600000  0.00000000  0.25700000  1
