# generated using pymatgen
data_AlGaO3
_symmetry_space_group_name_H-M   'P 1'
_cell_length_a   3.11125212
_cell_length_b   3.11120447
_cell_length_c   11.86131311
_cell_angle_alpha   90.01867685
_cell_angle_beta   89.99848980
_cell_angle_gamma   120.00088720
_symmetry_Int_Tables_number   1
_chemical_formula_structural   AlGaO3
_chemical_formula_sum   'Al2 Ga2 O6'
_cell_volume   99.43133046
_cell_formula_units_Z   2
loop_
 _symmetry_equiv_pos_site_id
 _symmetry_equiv_pos_as_xyz
  1  'x, y, z'
loop_
 _atom_site_type_symbol
 _atom_site_label
 _atom_site_symmetry_multiplicity
 _atom_site_fract_x
 _atom_site_fract_y
 _atom_site_fract_z
 _atom_site_occupancy
  Ga  Ga0  1  0.00000000  0.00000000  0.50000000  1
  Al  Al1  1  0.00000000  0.00000000  0.00000000  1
  Ga  Ga2  1  0.33330000  0.66660000  0.25000000  1
  Al  Al3  1  0.66670000  0.33340000  0.75000000  1
  O  O4  1  0.00000000  0.00000000  0.25000000  1
  O  O5  1  0.00000000  0.00000000  0.75000000  1
  O  O6  1  0.33330000  0.66660000  0.41390000  1
  O  O7  1  0.66670000  0.33340000  0.58610000  1
  O  O8  1  0.66670000  0.33340000  0.91390000  1
  O  O9  1  0.33330000  0.66660000  0.08610000  1
