# generated using pymatgen
data_Al11In5O24
_symmetry_space_group_name_H-M   'P 1'
_cell_length_a   5.94331849
_cell_length_b   5.94342285
_cell_length_c   14.60247503
_cell_angle_alpha   90.00005725
_cell_angle_beta   89.99667491
_cell_angle_gamma   120.00045269
_symmetry_Int_Tables_number   1
_chemical_formula_structural   Al11In5O24
_chemical_formula_sum   'Al11 In5 O24'
_cell_volume   446.70494017
_cell_formula_units_Z   1
loop_
 _symmetry_equiv_pos_site_id
 _symmetry_equiv_pos_as_xyz
  1  'x, y, z'
loop_
 _atom_site_type_symbol
 _atom_site_label
 _atom_site_symmetry_multiplicity
 _atom_site_fract_x
 _atom_site_fract_y
 _atom_site_fract_z
 _atom_site_occupancy
  Al  Al0  1  0.00000000  0.00000000  0.12788400  1
  In  In1  1  0.00000000  0.00000000  0.87211600  1
  In  In2  1  0.17143500  0.82856500  0.32634900  1
  Al  Al3  1  0.17143400  0.34286900  0.32634900  1
  In  In4  1  0.65713100  0.82856500  0.32634900  1
  Al  Al5  1  0.34286900  0.17143500  0.67365100  1
  Al  Al6  1  0.82856500  0.17143500  0.67365100  1
  Al  Al7  1  0.82856600  0.65713100  0.67365100  1
  Al  Al8  1  0.33333300  0.66666700  0.17173700  1
  In  In9  1  0.66666700  0.33333300  0.82826300  1
  In  In10  1  0.33333300  0.66666700  0.55247300  1
  Al  Al11  1  0.66666700  0.33333300  0.44752700  1
  Al  Al12  1  0.00000000  0.00000000  0.50000000  1
  Al  Al13  1  0.50000000  0.00000000  0.00000000  1
  Al  Al14  1  0.00000000  0.50000000  0.00000000  1
  Al  Al15  1  0.50000000  0.50000000  0.00000000  1
  O  O16  1  0.49982100  0.50017900  0.25204500  1
  O  O17  1  0.49982100  0.99964300  0.25204500  1
  O  O18  1  0.00035700  0.50017900  0.25204500  1
  O  O19  1  0.99964300  0.49982100  0.74795500  1
  O  O20  1  0.50017900  0.49982100  0.74795500  1
  O  O21  1  0.50017900  0.00035700  0.74795500  1
  O  O22  1  0.33333300  0.66666700  0.92562700  1
  O  O23  1  0.66666700  0.33333300  0.07437300  1
  O  O24  1  0.00000000  0.00000000  0.25905000  1
  O  O25  1  0.00000000  0.00000000  0.74095000  1
  O  O26  1  0.17533100  0.82466900  0.08312900  1
  O  O27  1  0.17533100  0.35066200  0.08312900  1
  O  O28  1  0.64933800  0.82466900  0.08312800  1
  O  O29  1  0.35066200  0.17533100  0.91687200  1
  O  O30  1  0.82466900  0.17533100  0.91687100  1
  O  O31  1  0.82466900  0.64933800  0.91687100  1
  O  O32  1  0.15339200  0.84660800  0.58677500  1
  O  O33  1  0.15339200  0.30678500  0.58677500  1
  O  O34  1  0.69321500  0.84660800  0.58677500  1
  O  O35  1  0.30678500  0.15339200  0.41322500  1
  O  O36  1  0.84660800  0.15339200  0.41322500  1
  O  O37  1  0.84660800  0.69321500  0.41322500  1
  O  O38  1  0.33333300  0.66666700  0.41788800  1
  O  O39  1  0.66666700  0.33333300  0.58211200  1
