# generated using pymatgen
data_Al(GaO2)3
_symmetry_space_group_name_H-M   'P 1'
_cell_length_a   3.15114011
_cell_length_b   3.15115754
_cell_length_c   11.95534754
_cell_angle_alpha   90.01203132
_cell_angle_beta   90.00209790
_cell_angle_gamma   119.99761005
_symmetry_Int_Tables_number   1
_chemical_formula_structural   Al(GaO2)3
_chemical_formula_sum   'Al1 Ga3 O6'
_cell_volume   102.81136147
_cell_formula_units_Z   1
loop_
 _symmetry_equiv_pos_site_id
 _symmetry_equiv_pos_as_xyz
  1  'x, y, z'
loop_
 _atom_site_type_symbol
 _atom_site_label
 _atom_site_symmetry_multiplicity
 _atom_site_fract_x
 _atom_site_fract_y
 _atom_site_fract_z
 _atom_site_occupancy
  Ga  Ga0  1  0.00000000  0.00000000  0.50000000  1
  Ga  Ga1  1  0.00000000  0.00000000  0.00000000  1
  Ga  Ga2  1  0.33330000  0.66660000  0.25000000  1
  Al  Al3  1  0.66670000  0.33340000  0.75000000  1
  O  O4  1  0.00000000  0.00000000  0.25000000  1
  O  O5  1  0.00000000  0.00000000  0.75000000  1
  O  O6  1  0.33330000  0.66660000  0.41390000  1
  O  O7  1  0.66670000  0.33340000  0.58610000  1
  O  O8  1  0.66670000  0.33340000  0.91390000  1
  O  O9  1  0.33330000  0.66660000  0.08610000  1
