# generated using pymatgen
data_AlGa11O18
_symmetry_space_group_name_H-M   'P 1'
_cell_length_a   5.03912828
_cell_length_b   5.03862793
_cell_length_c   13.58403667
_cell_angle_alpha   89.99930726
_cell_angle_beta   90.00201157
_cell_angle_gamma   119.99996065
_symmetry_Int_Tables_number   1
_chemical_formula_structural   AlGa11O18
_chemical_formula_sum   'Al1 Ga11 O18'
_cell_volume   298.69458748
_cell_formula_units_Z   1
loop_
 _symmetry_equiv_pos_site_id
 _symmetry_equiv_pos_as_xyz
  1  'x, y, z'
loop_
 _atom_site_type_symbol
 _atom_site_label
 _atom_site_symmetry_multiplicity
 _atom_site_fract_x
 _atom_site_fract_y
 _atom_site_fract_z
 _atom_site_occupancy
  Al  Al0  1  0.00000000  0.00000000  0.14500000  1
  Ga  Ga1  1  0.00000000  0.00000000  0.64500000  1
  Ga  Ga2  1  0.00000000  0.00000000  0.85500000  1
  Ga  Ga3  1  0.00000000  0.00000000  0.35500000  1
  Ga  Ga4  1  0.66666700  0.33333300  0.47833300  1
  Ga  Ga5  1  0.66666700  0.33333300  0.97833300  1
  Ga  Ga6  1  0.66666700  0.33333300  0.18833300  1
  Ga  Ga7  1  0.66666700  0.33333300  0.68833300  1
  Ga  Ga8  1  0.33333300  0.66666600  0.81166700  1
  Ga  Ga9  1  0.33333400  0.66666700  0.31166700  1
  Ga  Ga10  1  0.33333300  0.66666700  0.52166700  1
  Ga  Ga11  1  0.33333300  0.66666700  0.02166700  1
  O  O12  1  0.30300000  0.00000000  0.25000000  1
  O  O13  1  0.69700000  0.69700000  0.25000000  1
  O  O14  1  0.00000000  0.30300000  0.25000000  1
  O  O15  1  0.30300000  0.30300000  0.75000000  1
  O  O16  1  0.00000000  0.69700000  0.75000000  1
  O  O17  1  0.69700000  0.00000000  0.75000000  1
  O  O18  1  0.96966700  0.33333300  0.58333300  1
  O  O19  1  0.36366700  0.03033300  0.58333300  1
  O  O20  1  0.66666700  0.63633300  0.58333300  1
  O  O21  1  0.96966700  0.63633300  0.08333300  1
  O  O22  1  0.66666700  0.03033300  0.08333300  1
  O  O23  1  0.36366700  0.33333300  0.08333300  1
  O  O24  1  0.63633300  0.66666700  0.91666700  1
  O  O25  1  0.03033300  0.36366700  0.91666700  1
  O  O26  1  0.33333300  0.96966700  0.91666700  1
  O  O27  1  0.63633300  0.96966700  0.41666700  1
  O  O28  1  0.33333300  0.36366700  0.41666700  1
  O  O29  1  0.03033300  0.66666700  0.41666700  1
