# generated using pymatgen
data_Al5GaO9
_symmetry_space_group_name_H-M   'P 1'
_cell_length_a   9.70687971
_cell_length_b   4.85320825
_cell_length_c   13.20990639
_cell_angle_alpha   89.98638257
_cell_angle_beta   90.01454663
_cell_angle_gamma   120.00162569
_symmetry_Int_Tables_number   1
_chemical_formula_structural   Al5GaO9
_chemical_formula_sum   'Al20 Ga4 O36'
_cell_volume   538.92932377
_cell_formula_units_Z   4
loop_
 _symmetry_equiv_pos_site_id
 _symmetry_equiv_pos_as_xyz
  1  'x, y, z'
loop_
 _atom_site_type_symbol
 _atom_site_label
 _atom_site_symmetry_multiplicity
 _atom_site_fract_x
 _atom_site_fract_y
 _atom_site_fract_z
 _atom_site_occupancy
  Al  Al0  1  0.00000000  0.00000000  0.14500000  1
  Ga  Ga1  1  0.50000000  0.00000000  0.14500000  1
  Al  Al2  1  0.00000000  0.00000000  0.64500000  1
  Ga  Ga3  1  0.50000000  0.00000000  0.64500000  1
  Al  Al4  1  0.00000000  0.00000000  0.85500000  1
  Al  Al5  1  0.50000000  0.00000000  0.85500000  1
  Al  Al6  1  0.00000000  0.00000000  0.35500000  1
  Al  Al7  1  0.50000000  0.00000000  0.35500000  1
  Al  Al8  1  0.33333300  0.33333300  0.47833300  1
  Al  Al9  1  0.83333300  0.33333300  0.47833300  1
  Al  Al10  1  0.33333300  0.33333300  0.97833300  1
  Al  Al11  1  0.83333300  0.33333300  0.97833300  1
  Ga  Ga12  1  0.33333300  0.33333300  0.18833300  1
  Al  Al13  1  0.83333300  0.33333300  0.18833300  1
  Ga  Ga14  1  0.33333300  0.33333300  0.68833300  1
  Al  Al15  1  0.83333300  0.33333300  0.68833300  1
  Al  Al16  1  0.16666700  0.66666700  0.81166700  1
  Al  Al17  1  0.66666700  0.66666700  0.81166700  1
  Al  Al18  1  0.16666700  0.66666700  0.31166700  1
  Al  Al19  1  0.66666700  0.66666700  0.31166700  1
  Al  Al20  1  0.16666700  0.66666700  0.52166700  1
  Al  Al21  1  0.66666700  0.66666700  0.52166700  1
  Al  Al22  1  0.16666700  0.66666700  0.02166700  1
  Al  Al23  1  0.66666700  0.66666700  0.02166700  1
  O  O24  1  0.15150000  0.00000000  0.25000000  1
  O  O25  1  0.65150000  0.00000000  0.25000000  1
  O  O26  1  0.34850000  0.69700000  0.25000000  1
  O  O27  1  0.84850000  0.69700000  0.25000000  1
  O  O28  1  0.00000000  0.30300000  0.25000000  1
  O  O29  1  0.50000000  0.30300000  0.25000000  1
  O  O30  1  0.15150000  0.30300000  0.75000000  1
  O  O31  1  0.65150000  0.30300000  0.75000000  1
  O  O32  1  0.00000000  0.69700000  0.75000000  1
  O  O33  1  0.50000000  0.69700000  0.75000000  1
  O  O34  1  0.34850000  0.00000000  0.75000000  1
  O  O35  1  0.84850000  0.00000000  0.75000000  1
  O  O36  1  0.48483300  0.33333300  0.58333300  1
  O  O37  1  0.98483300  0.33333300  0.58333300  1
  O  O38  1  0.18183300  0.03033300  0.58333300  1
  O  O39  1  0.68183300  0.03033300  0.58333300  1
  O  O40  1  0.33333300  0.63633300  0.58333300  1
  O  O41  1  0.83333300  0.63633300  0.58333300  1
  O  O42  1  0.48483300  0.63633300  0.08333300  1
  O  O43  1  0.98483300  0.63633300  0.08333300  1
  O  O44  1  0.33333300  0.03033300  0.08333300  1
  O  O45  1  0.83333300  0.03033300  0.08333300  1
  O  O46  1  0.18183300  0.33333300  0.08333300  1
  O  O47  1  0.68183300  0.33333300  0.08333300  1
  O  O48  1  0.31816700  0.66666700  0.91666700  1
  O  O49  1  0.81816700  0.66666700  0.91666700  1
  O  O50  1  0.01516700  0.36366700  0.91666700  1
  O  O51  1  0.51516700  0.36366700  0.91666700  1
  O  O52  1  0.16666700  0.96966700  0.91666700  1
  O  O53  1  0.66666700  0.96966700  0.91666700  1
  O  O54  1  0.31816700  0.96966700  0.41666700  1
  O  O55  1  0.81816700  0.96966700  0.41666700  1
  O  O56  1  0.16666700  0.36366700  0.41666700  1
  O  O57  1  0.66666700  0.36366700  0.41666700  1
  O  O58  1  0.01516700  0.66666700  0.41666700  1
  O  O59  1  0.51516700  0.66666700  0.41666700  1
