# generated using pymatgen
data_Al11Ga5O24
_symmetry_space_group_name_H-M   'P 1'
_cell_length_a   4.96152043
_cell_length_b   8.52635724
_cell_length_c   9.15364624
_cell_angle_alpha   90.00319348
_cell_angle_beta   90.00230641
_cell_angle_gamma   90.00161047
_symmetry_Int_Tables_number   1
_chemical_formula_structural   Al11Ga5O24
_chemical_formula_sum   'Al11 Ga5 O24'
_cell_volume   387.23306375
_cell_formula_units_Z   1
loop_
 _symmetry_equiv_pos_site_id
 _symmetry_equiv_pos_as_xyz
  1  'x, y, z'
loop_
 _atom_site_type_symbol
 _atom_site_label
 _atom_site_symmetry_multiplicity
 _atom_site_fract_x
 _atom_site_fract_y
 _atom_site_fract_z
 _atom_site_occupancy
  Al  Al0  1  0.17900000  0.65800000  0.00000000  1
  Al  Al1  1  0.82100000  0.34200000  0.50000000  1
  Al  Al2  1  0.32100000  0.15800000  0.50000000  1
  Al  Al3  1  0.67900000  0.84200000  0.00000000  1
  Al  Al4  1  0.68500000  0.15700000  0.78700000  1
  Ga  Ga5  1  0.31500000  0.84300000  0.28700000  1
  Ga  Ga6  1  0.81500000  0.65700000  0.28700000  1
  Al  Al7  1  0.18500000  0.34300000  0.78700000  1
  Al  Al8  1  0.31200000  0.85100000  0.69700000  1
  Ga  Ga9  1  0.68800000  0.14900000  0.19700000  1
  Ga  Ga10  1  0.18800000  0.35100000  0.19700000  1
  Ga  Ga11  1  0.81200000  0.64900000  0.69700000  1
  Al  Al12  1  0.16800000  0.03000000  0.99900000  1
  Al  Al13  1  0.83200000  0.97000000  0.49900000  1
  Al  Al14  1  0.33200000  0.53000000  0.49900000  1
  Al  Al15  1  0.66800000  0.47000000  0.99900000  1
  O  O16  1  0.82900000  0.66900000  0.89300000  1
  O  O17  1  0.17100000  0.33100000  0.39300000  1
  O  O18  1  0.67100000  0.16900000  0.39300000  1
  O  O19  1  0.32900000  0.83100000  0.89300000  1
  O  O20  1  0.52500000  0.00900000  0.62900000  1
  O  O21  1  0.47500000  0.99100000  0.12900000  1
  O  O22  1  0.97500000  0.50900000  0.12900000  1
  O  O23  1  0.02500000  0.49100000  0.62900000  1
  O  O24  1  0.97200000  0.83500000  0.63800000  1
  O  O25  1  0.02800000  0.16500000  0.13800000  1
  O  O26  1  0.52800000  0.33500000  0.13800000  1
  O  O27  1  0.47200000  0.66500000  0.63800000  1
  O  O28  1  0.01500000  0.82700000  0.12100000  1
  O  O29  1  0.98500000  0.17300000  0.62100000  1
  O  O30  1  0.48500000  0.32700000  0.62100000  1
  O  O31  1  0.51500000  0.67300000  0.12100000  1
  O  O32  1  0.36100000  0.17000000  0.86600000  1
  O  O33  1  0.63900000  0.83000000  0.36600000  1
  O  O34  1  0.13900000  0.67000000  0.36600000  1
  O  O35  1  0.86100000  0.33000000  0.86600000  1
  O  O36  1  0.83600000  0.00100000  0.90000000  1
  O  O37  1  0.16400000  0.99900000  0.40000000  1
  O  O38  1  0.66400000  0.50100000  0.40000000  1
  O  O39  1  0.33600000  0.49900000  0.90000000  1
