# generated using pymatgen
data_Ga2O3
_symmetry_space_group_name_H-M   'P 1'
_cell_length_a   12.46083641
_cell_length_b   3.08453000
_cell_length_c   5.87728731
_cell_angle_alpha   90.00014015
_cell_angle_beta   103.65914093
_cell_angle_gamma   90.00009796
_symmetry_Int_Tables_number   1
_chemical_formula_structural   Ga2O3
_chemical_formula_sum   'Ga8 O12'
_cell_volume   219.50946892
_cell_formula_units_Z   4
loop_
 _symmetry_equiv_pos_site_id
 _symmetry_equiv_pos_as_xyz
  1  'x, y, z'
loop_
 _atom_site_type_symbol
 _atom_site_label
 _atom_site_symmetry_multiplicity
 _atom_site_fract_x
 _atom_site_fract_y
 _atom_site_fract_z
 _atom_site_occupancy
  Ga  Ga0  1  0.91004000  0.00000000  0.20524000  1
  Ga  Ga1  1  0.08996000  0.00000000  0.79476000  1
  Ga  Ga2  1  0.41004000  0.50000000  0.20524000  1
  Ga  Ga3  1  0.58996000  0.50000000  0.79476000  1
  Ga  Ga4  1  0.65770000  0.00000000  0.31667000  1
  Ga  Ga5  1  0.34230000  0.00000000  0.68333000  1
  Ga  Ga6  1  0.15770000  0.50000000  0.31667000  1
  Ga  Ga7  1  0.84230000  0.50000000  0.68333000  1
  O  O8  1  0.83933000  0.00000000  0.89846000  1
  O  O9  1  0.16067000  0.00000000  0.10154000  1
  O  O10  1  0.33933000  0.50000000  0.89846000  1
  O  O11  1  0.66067000  0.50000000  0.10154000  1
  O  O12  1  0.50393000  0.00000000  0.74280000  1
  O  O13  1  0.49607000  0.00000000  0.25720000  1
  O  O14  1  0.00393000  0.50000000  0.74280000  1
  O  O15  1  0.99607000  0.50000000  0.25720000  1
  O  O16  1  0.17109000  0.00000000  0.56087000  1
  O  O17  1  0.82891000  0.00000000  0.43913000  1
  O  O18  1  0.67109000  0.50000000  0.56087000  1
  O  O19  1  0.32891000  0.50000000  0.43913000  1
