# generated using pymatgen
data_In2O3
_symmetry_space_group_name_H-M   'P 1'
_cell_length_a   3.56107057
_cell_length_b   3.56071864
_cell_length_c   12.69313021
_cell_angle_alpha   90.02050656
_cell_angle_beta   89.97775348
_cell_angle_gamma   119.98386142
_symmetry_Int_Tables_number   1
_chemical_formula_structural   In2O3
_chemical_formula_sum   'In4 O6'
_cell_volume   139.40815157
_cell_formula_units_Z   2
loop_
 _symmetry_equiv_pos_site_id
 _symmetry_equiv_pos_as_xyz
  1  'x, y, z'
loop_
 _atom_site_type_symbol
 _atom_site_label
 _atom_site_symmetry_multiplicity
 _atom_site_fract_x
 _atom_site_fract_y
 _atom_site_fract_z
 _atom_site_occupancy
  In  In0  1  0.00000000  0.00000000  0.50000000  1
  In  In1  1  0.00000000  0.00000000  0.00000000  1
  In  In2  1  0.33330000  0.66660000  0.25000000  1
  In  In3  1  0.66670000  0.33340000  0.75000000  1
  O  O4  1  0.00000000  0.00000000  0.25000000  1
  O  O5  1  0.00000000  0.00000000  0.75000000  1
  O  O6  1  0.33330000  0.66660000  0.41390000  1
  O  O7  1  0.66670000  0.33340000  0.58610000  1
  O  O8  1  0.66670000  0.33340000  0.91390000  1
  O  O9  1  0.33330000  0.66660000  0.08610000  1
