# generated using pymatgen
data_AlGa5O9
_symmetry_space_group_name_H-M   'P 1'
_cell_length_a   5.01849357
_cell_length_b   5.01802188
_cell_length_c   13.54246659
_cell_angle_alpha   89.99794496
_cell_angle_beta   90.00338921
_cell_angle_gamma   120.00014138
_symmetry_Int_Tables_number   1
_chemical_formula_structural   AlGa5O9
_chemical_formula_sum   'Al2 Ga10 O18'
_cell_volume   295.34777756
_cell_formula_units_Z   2
loop_
 _symmetry_equiv_pos_site_id
 _symmetry_equiv_pos_as_xyz
  1  'x, y, z'
loop_
 _atom_site_type_symbol
 _atom_site_label
 _atom_site_symmetry_multiplicity
 _atom_site_fract_x
 _atom_site_fract_y
 _atom_site_fract_z
 _atom_site_occupancy
  Ga  Ga0  1  0.00000000  0.00000000  0.14500000  1
  Al  Al1  1  0.00000000  0.00000000  0.64500000  1
  Ga  Ga2  1  0.00000000  0.00000000  0.85500000  1
  Ga  Ga3  1  0.00000000  0.00000000  0.35500000  1
  Ga  Ga4  1  0.66666700  0.33333300  0.47833300  1
  Al  Al5  1  0.66666700  0.33333300  0.97833300  1
  Ga  Ga6  1  0.66666700  0.33333400  0.18833300  1
  Ga  Ga7  1  0.66666700  0.33333300  0.68833300  1
  Ga  Ga8  1  0.33333300  0.66666700  0.81166700  1
  Ga  Ga9  1  0.33333300  0.66666700  0.31166700  1
  Ga  Ga10  1  0.33333300  0.66666700  0.52166700  1
  Ga  Ga11  1  0.33333300  0.66666700  0.02166700  1
  O  O12  1  0.30300000  0.00000000  0.25000000  1
  O  O13  1  0.69700000  0.69700000  0.25000000  1
  O  O14  1  0.00000000  0.30300000  0.25000000  1
  O  O15  1  0.30300000  0.30300000  0.75000000  1
  O  O16  1  0.00000000  0.69700000  0.75000000  1
  O  O17  1  0.69700000  0.00000000  0.75000000  1
  O  O18  1  0.96966700  0.33333300  0.58333300  1
  O  O19  1  0.36366700  0.03033300  0.58333300  1
  O  O20  1  0.66666700  0.63633300  0.58333300  1
  O  O21  1  0.96966700  0.63633300  0.08333300  1
  O  O22  1  0.66666700  0.03033300  0.08333300  1
  O  O23  1  0.36366700  0.33333300  0.08333300  1
  O  O24  1  0.63633300  0.66666700  0.91666700  1
  O  O25  1  0.03033300  0.36366700  0.91666700  1
  O  O26  1  0.33333300  0.96966700  0.91666700  1
  O  O27  1  0.63633300  0.96966700  0.41666700  1
  O  O28  1  0.33333300  0.36366700  0.41666700  1
  O  O29  1  0.03033300  0.66666700  0.41666700  1
