# generated using pymatgen
data_Al2O3
_symmetry_space_group_name_H-M   'P 1'
_cell_length_a   3.03698441
_cell_length_b   3.03676003
_cell_length_c   11.67362778
_cell_angle_alpha   90.00418062
_cell_angle_beta   90.00213910
_cell_angle_gamma   120.00688995
_symmetry_Int_Tables_number   1
_chemical_formula_structural   Al2O3
_chemical_formula_sum   'Al4 O6'
_cell_volume   93.23078712
_cell_formula_units_Z   2
loop_
 _symmetry_equiv_pos_site_id
 _symmetry_equiv_pos_as_xyz
  1  'x, y, z'
loop_
 _atom_site_type_symbol
 _atom_site_label
 _atom_site_symmetry_multiplicity
 _atom_site_fract_x
 _atom_site_fract_y
 _atom_site_fract_z
 _atom_site_occupancy
  Al  Al0  1  0.00000000  0.00000000  0.50000000  1
  Al  Al1  1  0.00000000  0.00000000  0.00000000  1
  Al  Al2  1  0.00000000  0.57729300  0.25000000  1
  Al  Al3  1  0.50000000  0.28873300  0.75000000  1
  O  O4  1  0.00000000  0.00000000  0.25000000  1
  O  O5  1  0.00000000  0.00000000  0.75000000  1
  O  O6  1  0.00000000  0.57729300  0.41390000  1
  O  O7  1  0.50000000  0.28873300  0.58610000  1
  O  O8  1  0.50000000  0.28873300  0.91390000  1
  O  O9  1  0.00000000  0.57729200  0.08610000  1
