# generated using pymatgen
data_Al17In8Ga7O48
_symmetry_space_group_name_H-M   'P 1'
_cell_length_a   10.27337302
_cell_length_b   8.79840910
_cell_length_c   9.42536026
_cell_angle_alpha   90.00273146
_cell_angle_beta   90.00131519
_cell_angle_gamma   90.00086256
_symmetry_Int_Tables_number   1
_chemical_formula_structural   Al17In8Ga7O48
_chemical_formula_sum   'Al17 In8 Ga7 O48'
_cell_volume   851.95207941
_cell_formula_units_Z   1
loop_
 _symmetry_equiv_pos_site_id
 _symmetry_equiv_pos_as_xyz
  1  'x, y, z'
loop_
 _atom_site_type_symbol
 _atom_site_label
 _atom_site_symmetry_multiplicity
 _atom_site_fract_x
 _atom_site_fract_y
 _atom_site_fract_z
 _atom_site_occupancy
  Al  Al0  1  0.15600000  0.85100000  0.69700000  1
  Al  Al1  1  0.65600000  0.85100000  0.69700000  1
  Al  Al2  1  0.34400000  0.14900000  0.19700000  1
  Al  Al3  1  0.84400000  0.14900000  0.19700000  1
  Ga  Ga4  1  0.09400000  0.35100000  0.19700000  1
  In  In5  1  0.59400000  0.35100000  0.19700000  1
  In  In6  1  0.40600000  0.64900000  0.69700000  1
  In  In7  1  0.90600000  0.64900000  0.69700000  1
  Al  Al8  1  0.08950000  0.65800000  0.00000000  1
  Ga  Ga9  1  0.58950000  0.65800000  0.00000000  1
  Al  Al10  1  0.41050000  0.34200000  0.50000000  1
  In  In11  1  0.91050000  0.34200000  0.50000000  1
  In  In12  1  0.16050000  0.15800000  0.50000000  1
  Ga  Ga13  1  0.66050000  0.15800000  0.50000000  1
  In  In14  1  0.33950000  0.84200000  0.00000000  1
  Ga  Ga15  1  0.83950000  0.84200000  0.00000000  1
  Al  Al16  1  0.08400000  0.03000000  0.99900000  1
  Al  Al17  1  0.58400000  0.03000000  0.99900000  1
  In  In18  1  0.41600000  0.97000000  0.49900000  1
  Ga  Ga19  1  0.91600000  0.97000000  0.49900000  1
  Al  Al20  1  0.16600000  0.53000000  0.49900000  1
  Al  Al21  1  0.66600000  0.53000000  0.49900000  1
  In  In22  1  0.33400000  0.47000000  0.99900000  1
  Al  Al23  1  0.83400000  0.47000000  0.99900000  1
  Ga  Ga24  1  0.34250000  0.15700000  0.78700000  1
  Al  Al25  1  0.84250000  0.15700000  0.78700000  1
  Al  Al26  1  0.15750000  0.84300000  0.28700000  1
  Al  Al27  1  0.65750000  0.84300000  0.28700000  1
  Al  Al28  1  0.40750000  0.65700000  0.28700000  1
  Ga  Ga29  1  0.90750000  0.65700000  0.28700000  1
  Al  Al30  1  0.09250000  0.34300000  0.78700000  1
  Al  Al31  1  0.59250000  0.34300000  0.78700000  1
  O  O32  1  0.41450000  0.66900000  0.89300000  1
  O  O33  1  0.91450000  0.66900000  0.89300000  1
  O  O34  1  0.08550000  0.33100000  0.39300000  1
  O  O35  1  0.58550000  0.33100000  0.39300000  1
  O  O36  1  0.33550000  0.16900000  0.39300000  1
  O  O37  1  0.83550000  0.16900000  0.39300000  1
  O  O38  1  0.16450000  0.83100000  0.89300000  1
  O  O39  1  0.66450000  0.83100000  0.89300000  1
  O  O40  1  0.26250000  0.00900000  0.62900000  1
  O  O41  1  0.76250000  0.00900000  0.62900000  1
  O  O42  1  0.23750000  0.99100000  0.12900000  1
  O  O43  1  0.73750000  0.99100000  0.12900000  1
  O  O44  1  0.48750000  0.50900000  0.12900000  1
  O  O45  1  0.98750000  0.50900000  0.12900000  1
  O  O46  1  0.01250000  0.49100000  0.62900000  1
  O  O47  1  0.51250000  0.49100000  0.62900000  1
  O  O48  1  0.00750000  0.82700000  0.12100000  1
  O  O49  1  0.50750000  0.82700000  0.12100000  1
  O  O50  1  0.49250000  0.17300000  0.62100000  1
  O  O51  1  0.99250000  0.17300000  0.62100000  1
  O  O52  1  0.24250000  0.32700000  0.62100000  1
  O  O53  1  0.74250000  0.32700000  0.62100000  1
  O  O54  1  0.25750000  0.67300000  0.12100000  1
  O  O55  1  0.75750000  0.67300000  0.12100000  1
  O  O56  1  0.48600000  0.83500000  0.63800000  1
  O  O57  1  0.98600000  0.83500000  0.63800000  1
  O  O58  1  0.01400000  0.16500000  0.13800000  1
  O  O59  1  0.51400000  0.16500000  0.13800000  1
  O  O60  1  0.26400000  0.33500000  0.13800000  1
  O  O61  1  0.76400000  0.33500000  0.13800000  1
  O  O62  1  0.23600000  0.66500000  0.63800000  1
  O  O63  1  0.73600000  0.66500000  0.63800000  1
  O  O64  1  0.18050000  0.17000000  0.86600000  1
  O  O65  1  0.68050000  0.17000000  0.86600000  1
  O  O66  1  0.31950000  0.83000000  0.36600000  1
  O  O67  1  0.81950000  0.83000000  0.36600000  1
  O  O68  1  0.06950000  0.67000000  0.36600000  1
  O  O69  1  0.56950000  0.67000000  0.36600000  1
  O  O70  1  0.43050000  0.33000000  0.86600000  1
  O  O71  1  0.93050000  0.33000000  0.86600000  1
  O  O72  1  0.41800000  0.00100000  0.90000000  1
  O  O73  1  0.91800000  0.00100000  0.90000000  1
  O  O74  1  0.08200000  0.99900000  0.40000000  1
  O  O75  1  0.58200000  0.99900000  0.40000000  1
  O  O76  1  0.33200000  0.50100000  0.40000000  1
  O  O77  1  0.83200000  0.50100000  0.40000000  1
  O  O78  1  0.16800000  0.49900000  0.90000000  1
  O  O79  1  0.66800000  0.49900000  0.90000000  1
