# generated using pymatgen
data_AlIn5(Ga5O12)2
_symmetry_space_group_name_H-M   'P 1'
_cell_length_a   6.14578276
_cell_length_b   6.14464315
_cell_length_c   14.45471859
_cell_angle_alpha   90.01834564
_cell_angle_beta   90.00519336
_cell_angle_gamma   120.00354733
_symmetry_Int_Tables_number   1
_chemical_formula_structural   AlIn5(Ga5O12)2
_chemical_formula_sum   'Al1 In5 Ga10 O24'
_cell_volume   472.71412385
_cell_formula_units_Z   1
loop_
 _symmetry_equiv_pos_site_id
 _symmetry_equiv_pos_as_xyz
  1  'x, y, z'
loop_
 _atom_site_type_symbol
 _atom_site_label
 _atom_site_symmetry_multiplicity
 _atom_site_fract_x
 _atom_site_fract_y
 _atom_site_fract_z
 _atom_site_occupancy
  Ga  Ga0  1  0.00000000  0.00000000  0.87500000  1
  In  In1  1  0.00000000  0.00000000  0.12500000  1
  Ga  Ga2  1  0.33333300  0.66666700  0.79166700  1
  Ga  Ga3  1  0.66666700  0.33333300  0.20833300  1
  In  In4  1  0.50000000  0.00000000  0.00000000  1
  Ga  Ga5  1  0.00000000  0.50000000  0.00000000  1
  Ga  Ga6  1  0.50000000  0.50000000  0.00000000  1
  In  In7  1  0.16666700  0.83333300  0.33333300  1
  In  In8  1  0.16666700  0.33333300  0.33333300  1
  Al  Al9  1  0.66666700  0.83333300  0.33333300  1
  Ga  Ga10  1  0.33333300  0.16666700  0.66666700  1
  Ga  Ga11  1  0.83333300  0.16666700  0.66666700  1
  In  In12  1  0.83333300  0.66666700  0.66666700  1
  Ga  Ga13  1  0.33333300  0.66666700  0.54166700  1
  Ga  Ga14  1  0.66666700  0.33333300  0.45833300  1
  Ga  Ga15  1  0.00000000  0.00000000  0.50000000  1
  O  O16  1  0.82666700  0.17333300  0.91833300  1
  O  O17  1  0.82666700  0.65333300  0.91833300  1
  O  O18  1  0.34666700  0.17333300  0.91833300  1
  O  O19  1  0.65333300  0.82666700  0.08166700  1
  O  O20  1  0.17333300  0.82666700  0.08166700  1
  O  O21  1  0.17333300  0.34666700  0.08166700  1
  O  O22  1  0.00000000  0.00000000  0.74500000  1
  O  O23  1  0.00000000  0.00000000  0.25500000  1
  O  O24  1  0.33333300  0.66666700  0.92166700  1
  O  O25  1  0.66666700  0.33333300  0.07833300  1
  O  O26  1  0.50666700  0.49333300  0.74833300  1
  O  O27  1  0.50666700  0.01333300  0.74833300  1
  O  O28  1  0.98666700  0.49333300  0.74833300  1
  O  O29  1  0.01333300  0.50666700  0.25166700  1
  O  O30  1  0.49333300  0.50666700  0.25166700  1
  O  O31  1  0.49333300  0.98666700  0.25166700  1
  O  O32  1  0.16000000  0.84000000  0.58500000  1
  O  O33  1  0.16000000  0.32000000  0.58500000  1
  O  O34  1  0.68000000  0.84000000  0.58500000  1
  O  O35  1  0.32000000  0.16000000  0.41500000  1
  O  O36  1  0.84000000  0.16000000  0.41500000  1
  O  O37  1  0.84000000  0.68000000  0.41500000  1
  O  O38  1  0.33333300  0.66666700  0.41166700  1
  O  O39  1  0.66666700  0.33333300  0.58833300  1
