# generated using pymatgen
data_Al2InGaO6
_symmetry_space_group_name_H-M   'P 1'
_cell_length_a   3.20381658
_cell_length_b   3.20366983
_cell_length_c   12.02200329
_cell_angle_alpha   90.01468212
_cell_angle_beta   90.00699682
_cell_angle_gamma   119.99656121
_symmetry_Int_Tables_number   1
_chemical_formula_structural   Al2InGaO6
_chemical_formula_sum   'Al2 In1 Ga1 O6'
_cell_volume   106.86558933
_cell_formula_units_Z   1
loop_
 _symmetry_equiv_pos_site_id
 _symmetry_equiv_pos_as_xyz
  1  'x, y, z'
loop_
 _atom_site_type_symbol
 _atom_site_label
 _atom_site_symmetry_multiplicity
 _atom_site_fract_x
 _atom_site_fract_y
 _atom_site_fract_z
 _atom_site_occupancy
  Ga  Ga0  1  0.00000000  0.00000000  0.50000000  1
  In  In1  1  0.00000000  0.00000000  0.00000000  1
  Al  Al2  1  0.33330000  0.66660000  0.25000000  1
  Al  Al3  1  0.66670000  0.33340000  0.75000000  1
  O  O4  1  0.00000000  0.00000000  0.25000000  1
  O  O5  1  0.00000000  0.00000000  0.75000000  1
  O  O6  1  0.33330000  0.66660000  0.41390000  1
  O  O7  1  0.66670000  0.33340000  0.58610000  1
  O  O8  1  0.66670000  0.33340000  0.91390000  1
  O  O9  1  0.33330000  0.66660000  0.08610000  1
