# generated using pymatgen
data_Al25In3(GaO12)4
_symmetry_space_group_name_H-M   'P 1'
_cell_length_a   6.20671370
_cell_length_b   6.20637276
_cell_length_c   23.63182519
_cell_angle_alpha   90.01280890
_cell_angle_beta   90.00531194
_cell_angle_gamma   120.00243875
_symmetry_Int_Tables_number   1
_chemical_formula_structural   Al25In3(GaO12)4
_chemical_formula_sum   'Al25 In3 Ga4 O48'
_cell_volume   788.34582157
_cell_formula_units_Z   1
loop_
 _symmetry_equiv_pos_site_id
 _symmetry_equiv_pos_as_xyz
  1  'x, y, z'
loop_
 _atom_site_type_symbol
 _atom_site_label
 _atom_site_symmetry_multiplicity
 _atom_site_fract_x
 _atom_site_fract_y
 _atom_site_fract_z
 _atom_site_occupancy
  Al  Al0  1  0.00000000  0.00000000  0.25000000  1
  Al  Al1  1  0.00000000  0.00000000  0.75000000  1
  Al  Al2  1  0.00000000  0.50000000  0.25000000  1
  Al  Al3  1  0.00000000  0.50000000  0.75000000  1
  Al  Al4  1  0.50000000  0.00000000  0.25000000  1
  Al  Al5  1  0.50000000  0.00000000  0.75000000  1
  Al  Al6  1  0.50000000  0.50000000  0.25000000  1
  Al  Al7  1  0.50000000  0.50000000  0.75000000  1
  In  In8  1  0.00000000  0.00000000  0.00000000  1
  Al  Al9  1  0.00000000  0.00000000  0.50000000  1
  Ga  Ga10  1  0.00000000  0.50000000  0.00000000  1
  In  In11  1  0.00000000  0.50000000  0.50000000  1
  Al  Al12  1  0.50000000  0.00000000  0.00000000  1
  Al  Al13  1  0.50000000  0.00000000  0.50000000  1
  Al  Al14  1  0.50000000  0.50000000  0.00000000  1
  Ga  Ga15  1  0.50000000  0.50000000  0.50000000  1
  Al  Al16  1  0.16665000  0.33330000  0.12500000  1
  Al  Al17  1  0.16665000  0.33330000  0.62500000  1
  Ga  Ga18  1  0.16665000  0.83330000  0.12500000  1
  Al  Al19  1  0.16665000  0.83330000  0.62500000  1
  Al  Al20  1  0.66665000  0.33330000  0.12500000  1
  Al  Al21  1  0.66665000  0.33330000  0.62500000  1
  Al  Al22  1  0.66665000  0.83330000  0.12500000  1
  In  In23  1  0.66665000  0.83330000  0.62500000  1
  Al  Al24  1  0.33335000  0.16670000  0.37500000  1
  Al  Al25  1  0.33335000  0.16670000  0.87500000  1
  Al  Al26  1  0.33335000  0.66670000  0.37500000  1
  Al  Al27  1  0.33335000  0.66670000  0.87500000  1
  Ga  Ga28  1  0.83335000  0.16670000  0.37500000  1
  Al  Al29  1  0.83335000  0.16670000  0.87500000  1
  Al  Al30  1  0.83335000  0.66670000  0.37500000  1
  Al  Al31  1  0.83335000  0.66670000  0.87500000  1
  O  O32  1  0.16665000  0.33330000  0.20695000  1
  O  O33  1  0.16665000  0.33330000  0.70695000  1
  O  O34  1  0.16665000  0.83330000  0.20695000  1
  O  O35  1  0.16665000  0.83330000  0.70695000  1
  O  O36  1  0.66665000  0.33330000  0.20695000  1
  O  O37  1  0.66665000  0.33330000  0.70695000  1
  O  O38  1  0.66665000  0.83330000  0.20695000  1
  O  O39  1  0.66665000  0.83330000  0.70695000  1
  O  O40  1  0.33335000  0.16670000  0.29305000  1
  O  O41  1  0.33335000  0.16670000  0.79305000  1
  O  O42  1  0.33335000  0.66670000  0.29305000  1
  O  O43  1  0.33335000  0.66670000  0.79305000  1
  O  O44  1  0.83335000  0.16670000  0.29305000  1
  O  O45  1  0.83335000  0.16670000  0.79305000  1
  O  O46  1  0.83335000  0.66670000  0.29305000  1
  O  O47  1  0.83335000  0.66670000  0.79305000  1
  O  O48  1  0.33335000  0.16670000  0.45695000  1
  O  O49  1  0.33335000  0.16670000  0.95695000  1
  O  O50  1  0.33335000  0.66670000  0.45695000  1
  O  O51  1  0.33335000  0.66670000  0.95695000  1
  O  O52  1  0.83335000  0.16670000  0.45695000  1
  O  O53  1  0.83335000  0.16670000  0.95695000  1
  O  O54  1  0.83335000  0.66670000  0.45695000  1
  O  O55  1  0.83335000  0.66670000  0.95695000  1
  O  O56  1  0.16665000  0.33330000  0.04305000  1
  O  O57  1  0.16665000  0.33330000  0.54305000  1
  O  O58  1  0.16665000  0.83330000  0.04305000  1
  O  O59  1  0.16665000  0.83330000  0.54305000  1
  O  O60  1  0.66665000  0.33330000  0.04305000  1
  O  O61  1  0.66665000  0.33330000  0.54305000  1
  O  O62  1  0.66665000  0.83330000  0.04305000  1
  O  O63  1  0.66665000  0.83330000  0.54305000  1
  O  O64  1  0.00000000  0.00000000  0.12500000  1
  O  O65  1  0.00000000  0.00000000  0.62500000  1
  O  O66  1  0.00000000  0.50000000  0.12500000  1
  O  O67  1  0.00000000  0.50000000  0.62500000  1
  O  O68  1  0.50000000  0.00000000  0.12500000  1
  O  O69  1  0.50000000  0.00000000  0.62500000  1
  O  O70  1  0.50000000  0.50000000  0.12500000  1
  O  O71  1  0.50000000  0.50000000  0.62500000  1
  O  O72  1  0.00000000  0.00000000  0.37500000  1
  O  O73  1  0.00000000  0.00000000  0.87500000  1
  O  O74  1  0.00000000  0.50000000  0.37500000  1
  O  O75  1  0.00000000  0.50000000  0.87500000  1
  O  O76  1  0.50000000  0.00000000  0.37500000  1
  O  O77  1  0.50000000  0.00000000  0.87500000  1
  O  O78  1  0.50000000  0.50000000  0.37500000  1
  O  O79  1  0.50000000  0.50000000  0.87500000  1
