# generated using pymatgen
data_Al3In13O24
_symmetry_space_group_name_H-M   'P 1'
_cell_length_a   10.04552131
_cell_length_b   10.04536608
_cell_length_c   10.04568549
_cell_angle_alpha   90.00057530
_cell_angle_beta   90.00084901
_cell_angle_gamma   89.99931208
_symmetry_Int_Tables_number   1
_chemical_formula_structural   Al3In13O24
_chemical_formula_sum   'Al6 In26 O48'
_cell_volume   1013.71955573
_cell_formula_units_Z   2
loop_
 _symmetry_equiv_pos_site_id
 _symmetry_equiv_pos_as_xyz
  1  'x, y, z'
loop_
 _atom_site_type_symbol
 _atom_site_label
 _atom_site_symmetry_multiplicity
 _atom_site_fract_x
 _atom_site_fract_y
 _atom_site_fract_z
 _atom_site_occupancy
  In  In0  1  0.75000000  0.25000000  0.75000000  1
  In  In1  1  0.25000000  0.75000000  0.75000000  1
  Al  Al2  1  0.75000000  0.75000000  0.25000000  1
  In  In3  1  0.75000000  0.75000000  0.75000000  1
  Al  Al4  1  0.25000000  0.75000000  0.25000000  1
  Al  Al5  1  0.75000000  0.25000000  0.25000000  1
  In  In6  1  0.25000000  0.25000000  0.75000000  1
  Al  Al7  1  0.25000000  0.25000000  0.25000000  1
  In  In8  1  0.75000000  0.46600000  0.50000000  1
  In  In9  1  0.25000000  0.96600000  0.00000000  1
  In  In10  1  0.75000000  0.53400000  0.00000000  1
  In  In11  1  0.50000000  0.75000000  0.46600000  1
  In  In12  1  0.00000000  0.25000000  0.96600000  1
  In  In13  1  0.00000000  0.75000000  0.53400000  1
  In  In14  1  0.46600000  0.50000000  0.75000000  1
  In  In15  1  0.96600000  0.00000000  0.25000000  1
  In  In16  1  0.53400000  0.00000000  0.75000000  1
  In  In17  1  0.25000000  0.53400000  0.50000000  1
  In  In18  1  0.75000000  0.03400000  0.00000000  1
  In  In19  1  0.25000000  0.46600000  0.00000000  1
  In  In20  1  0.50000000  0.25000000  0.53400000  1
  In  In21  1  0.00000000  0.75000000  0.03400000  1
  In  In22  1  0.00000000  0.25000000  0.46600000  1
  Al  Al23  1  0.53400000  0.50000000  0.25000000  1
  In  In24  1  0.03400000  0.00000000  0.75000000  1
  Al  Al25  1  0.46600000  0.00000000  0.25000000  1
  In  In26  1  0.25000000  0.03400000  0.50000000  1
  In  In27  1  0.50000000  0.25000000  0.03400000  1
  In  In28  1  0.03400000  0.50000000  0.25000000  1
  In  In29  1  0.75000000  0.96600000  0.50000000  1
  In  In30  1  0.50000000  0.75000000  0.96600000  1
  In  In31  1  0.96600000  0.50000000  0.75000000  1
  O  O32  1  0.62000000  0.39100000  0.65600000  1
  O  O33  1  0.38000000  0.89100000  0.84400000  1
  O  O34  1  0.88000000  0.60900000  0.15600000  1
  O  O35  1  0.62000000  0.60900000  0.84400000  1
  O  O36  1  0.65600000  0.62000000  0.39100000  1
  O  O37  1  0.84400000  0.38000000  0.89100000  1
  O  O38  1  0.15600000  0.88000000  0.60900000  1
  O  O39  1  0.84400000  0.62000000  0.60900000  1
  O  O40  1  0.39100000  0.65600000  0.62000000  1
  O  O41  1  0.89100000  0.84400000  0.38000000  1
  O  O42  1  0.60900000  0.15600000  0.88000000  1
  O  O43  1  0.60900000  0.84400000  0.62000000  1
  O  O44  1  0.38000000  0.60900000  0.34400000  1
  O  O45  1  0.62000000  0.10900000  0.15600000  1
  O  O46  1  0.12000000  0.39100000  0.84400000  1
  O  O47  1  0.38000000  0.39100000  0.15600000  1
  O  O48  1  0.34400000  0.38000000  0.60900000  1
  O  O49  1  0.15600000  0.62000000  0.10900000  1
  O  O50  1  0.84400000  0.12000000  0.39100000  1
  O  O51  1  0.15600000  0.38000000  0.39100000  1
  O  O52  1  0.60900000  0.34400000  0.38000000  1
  O  O53  1  0.10900000  0.15600000  0.62000000  1
  O  O54  1  0.39100000  0.84400000  0.12000000  1
  O  O55  1  0.39100000  0.15600000  0.38000000  1
  O  O56  1  0.12000000  0.89100000  0.15600000  1
  O  O57  1  0.88000000  0.39100000  0.34400000  1
  O  O58  1  0.38000000  0.10900000  0.65600000  1
  O  O59  1  0.12000000  0.10900000  0.34400000  1
  O  O60  1  0.15600000  0.12000000  0.89100000  1
  O  O61  1  0.34400000  0.88000000  0.39100000  1
  O  O62  1  0.65600000  0.38000000  0.10900000  1
  O  O63  1  0.34400000  0.12000000  0.10900000  1
  O  O64  1  0.89100000  0.15600000  0.12000000  1
  O  O65  1  0.39100000  0.34400000  0.88000000  1
  O  O66  1  0.10900000  0.65600000  0.38000000  1
  O  O67  1  0.10900000  0.34400000  0.12000000  1
  O  O68  1  0.88000000  0.10900000  0.84400000  1
  O  O69  1  0.12000000  0.60900000  0.65600000  1
  O  O70  1  0.62000000  0.89100000  0.34400000  1
  O  O71  1  0.88000000  0.89100000  0.65600000  1
  O  O72  1  0.84400000  0.88000000  0.10900000  1
  O  O73  1  0.65600000  0.12000000  0.60900000  1
  O  O74  1  0.34400000  0.62000000  0.89100000  1
  O  O75  1  0.65600000  0.88000000  0.89100000  1
  O  O76  1  0.10900000  0.84400000  0.88000000  1
  O  O77  1  0.60900000  0.65600000  0.12000000  1
  O  O78  1  0.89100000  0.34400000  0.62000000  1
  O  O79  1  0.89100000  0.65600000  0.88000000  1
