# generated using pymatgen
data_Al5In3(GaO3)8
_symmetry_space_group_name_H-M   'P 1'
_cell_length_a   10.21769825
_cell_length_b   5.91866626
_cell_length_c   14.58086680
_cell_angle_alpha   90.90341904
_cell_angle_beta   91.04975603
_cell_angle_gamma   30.32425822
_symmetry_Int_Tables_number   1
_chemical_formula_structural   Al5In3(GaO3)8
_chemical_formula_sum   'Al5 In3 Ga8 O24'
_cell_volume   445.12996199
_cell_formula_units_Z   1
loop_
 _symmetry_equiv_pos_site_id
 _symmetry_equiv_pos_as_xyz
  1  'x, y, z'
loop_
 _atom_site_type_symbol
 _atom_site_label
 _atom_site_symmetry_multiplicity
 _atom_site_fract_x
 _atom_site_fract_y
 _atom_site_fract_z
 _atom_site_occupancy
  In  In0  1  0.33333300  0.00000000  0.20833300  1
  Ga  Ga1  1  0.66666700  0.00000000  0.79166700  1
  Ga  Ga2  1  0.00000000  0.00000000  0.12500000  1
  Al  Al3  1  0.00000000  0.00000000  0.87500000  1
  Al  Al4  1  0.66666700  0.00000000  0.16666700  1
  Al  Al5  1  0.33333300  0.00000000  0.83333300  1
  In  In6  1  0.83333300  0.50000000  0.33333300  1
  Al  Al7  1  0.66666700  0.50000000  0.66666700  1
  Ga  Ga8  1  0.16666700  0.50000000  0.66666700  1
  Ga  Ga9  1  0.33333300  0.50000000  0.33333300  1
  Ga  Ga10  1  0.66666700  0.00000000  0.54166700  1
  Ga  Ga11  1  0.33333300  0.00000000  0.45833300  1
  Al  Al12  1  0.00000000  0.00000000  0.50000000  1
  Ga  Ga13  1  0.50000000  0.00000000  0.00000000  1
  Ga  Ga14  1  0.00000000  0.50000000  0.00000000  1
  In  In15  1  0.50000000  0.50000000  0.00000000  1
  O  O16  1  0.50666700  0.00000000  0.25166700  1
  O  O17  1  0.49333300  0.00000000  0.74833300  1
  O  O18  1  0.33333300  0.00000000  0.07833300  1
  O  O19  1  0.66666700  0.00000000  0.92166700  1
  O  O20  1  0.50666700  0.48000000  0.25166700  1
  O  O21  1  0.01333300  0.48000000  0.74833300  1
  O  O22  1  0.49333300  0.52000000  0.74833300  1
  O  O23  1  0.98666700  0.52000000  0.25166700  1
  O  O24  1  0.00000000  0.00000000  0.25500000  1
  O  O25  1  0.00000000  0.00000000  0.74500000  1
  O  O26  1  0.82666700  0.00000000  0.08166700  1
  O  O27  1  0.17333300  0.00000000  0.91833300  1
  O  O28  1  0.82666700  0.52000000  0.08166700  1
  O  O29  1  0.65333300  0.52000000  0.91833300  1
  O  O30  1  0.17333300  0.48000000  0.91833300  1
  O  O31  1  0.34666700  0.48000000  0.08166700  1
  O  O32  1  0.84000000  0.00000000  0.58500000  1
  O  O33  1  0.16000000  0.00000000  0.41500000  1
  O  O34  1  0.66666700  0.00000000  0.41166700  1
  O  O35  1  0.33333300  0.00000000  0.58833300  1
  O  O36  1  0.84000000  0.48000000  0.58500000  1
  O  O37  1  0.68000000  0.48000000  0.41500000  1
  O  O38  1  0.16000000  0.52000000  0.41500000  1
  O  O39  1  0.32000000  0.52000000  0.58500000  1
