# generated using pymatgen
data_Al13(GaO8)3
_symmetry_space_group_name_H-M   'P 1'
_cell_length_a   9.75099704
_cell_length_b   5.65953738
_cell_length_c   13.96297539
_cell_angle_alpha   90.96884351
_cell_angle_beta   91.12278772
_cell_angle_gamma   30.51853744
_symmetry_Int_Tables_number   1
_chemical_formula_structural   Al13(GaO8)3
_chemical_formula_sum   'Al13 Ga3 O24'
_cell_volume   391.22974197
_cell_formula_units_Z   1
loop_
 _symmetry_equiv_pos_site_id
 _symmetry_equiv_pos_as_xyz
  1  'x, y, z'
loop_
 _atom_site_type_symbol
 _atom_site_label
 _atom_site_symmetry_multiplicity
 _atom_site_fract_x
 _atom_site_fract_y
 _atom_site_fract_z
 _atom_site_occupancy
  Ga  Ga0  1  0.83333300  0.00000000  0.95833300  1
  Al  Al1  1  0.50000000  0.00000000  0.00000000  1
  Al  Al2  1  0.66666700  0.50000000  0.16666700  1
  Ga  Ga3  1  0.16666700  0.50000000  0.16666700  1
  Ga  Ga4  1  0.50000000  0.00000000  0.37500000  1
  Al  Al5  1  0.16666700  0.00000000  0.29166700  1
  Al  Al6  1  0.00000000  0.00000000  0.50000000  1
  Al  Al7  1  0.83333300  0.00000000  0.33333300  1
  Al  Al8  1  0.00000000  0.50000000  0.50000000  1
  Al  Al9  1  0.50000000  0.50000000  0.50000000  1
  Al  Al10  1  0.83333300  0.00000000  0.70833300  1
  Al  Al11  1  0.50000000  0.00000000  0.62500000  1
  Al  Al12  1  0.33333300  0.00000000  0.83333300  1
  Al  Al13  1  0.16666700  0.00000000  0.66666700  1
  Al  Al14  1  0.33333300  0.50000000  0.83333300  1
  Al  Al15  1  0.83333300  0.50000000  0.83333300  1
  O  O16  1  0.34000000  0.00000000  0.08500000  1
  O  O17  1  0.16666700  0.00000000  0.91166700  1
  O  O18  1  0.34000000  0.48000000  0.08500000  1
  O  O19  1  0.82000000  0.52000000  0.08500000  1
  O  O20  1  0.83333300  0.00000000  0.08833300  1
  O  O21  1  0.66000000  0.00000000  0.91500000  1
  O  O22  1  0.66000000  0.52000000  0.91500000  1
  O  O23  1  0.18000000  0.48000000  0.91500000  1
  O  O24  1  0.67333300  0.00000000  0.41833300  1
  O  O25  1  0.50000000  0.00000000  0.24500000  1
  O  O26  1  0.67333300  0.48000000  0.41833300  1
  O  O27  1  0.15333300  0.52000000  0.41833300  1
  O  O28  1  0.16666700  0.00000000  0.42166700  1
  O  O29  1  0.99333300  0.00000000  0.24833300  1
  O  O30  1  0.99333300  0.52000000  0.24833300  1
  O  O31  1  0.51333300  0.48000000  0.24833300  1
  O  O32  1  0.00666700  0.00000000  0.75166700  1
  O  O33  1  0.83333300  0.00000000  0.57833300  1
  O  O34  1  0.00666700  0.48000000  0.75166700  1
  O  O35  1  0.48666700  0.52000000  0.75166700  1
  O  O36  1  0.50000000  0.00000000  0.75500000  1
  O  O37  1  0.32666700  0.00000000  0.58166700  1
  O  O38  1  0.32666700  0.52000000  0.58166700  1
  O  O39  1  0.84666700  0.48000000  0.58166700  1
