# generated using pymatgen
data_AlIn2Ga13O24
_symmetry_space_group_name_H-M   'P 1'
_cell_length_a   6.01756544
_cell_length_b   6.01646379
_cell_length_c   14.42682404
_cell_angle_alpha   90.00317437
_cell_angle_beta   90.00233294
_cell_angle_gamma   119.99757589
_symmetry_Int_Tables_number   1
_chemical_formula_structural   AlIn2Ga13O24
_chemical_formula_sum   'Al1 In2 Ga13 O24'
_cell_volume   452.34948605
_cell_formula_units_Z   1
loop_
 _symmetry_equiv_pos_site_id
 _symmetry_equiv_pos_as_xyz
  1  'x, y, z'
loop_
 _atom_site_type_symbol
 _atom_site_label
 _atom_site_symmetry_multiplicity
 _atom_site_fract_x
 _atom_site_fract_y
 _atom_site_fract_z
 _atom_site_occupancy
  Ga  Ga0  1  0.33333300  0.66666700  0.95833300  1
  Ga  Ga1  1  0.50000000  0.50000000  0.16666700  1
  Ga  Ga2  1  0.50000000  0.00000000  0.16666700  1
  Ga  Ga3  1  0.00000000  0.50000000  0.16666700  1
  Ga  Ga4  1  0.66666700  0.33333300  0.00000000  1
  Al  Al5  1  0.66666700  0.33333300  0.37500000  1
  In  In6  1  0.00000000  0.00000000  0.29166700  1
  Ga  Ga7  1  0.16666700  0.83333300  0.50000000  1
  Ga  Ga8  1  0.16666700  0.33333300  0.50000000  1
  Ga  Ga9  1  0.66666700  0.83333300  0.50000000  1
  Ga  Ga10  1  0.33333300  0.66666700  0.70833300  1
  In  In11  1  0.66666700  0.33333300  0.62500000  1
  Ga  Ga12  1  0.83333300  0.16666700  0.83333300  1
  Ga  Ga13  1  0.83333300  0.66666700  0.83333300  1
  Ga  Ga14  1  0.33333300  0.16666700  0.83333300  1
  Ga  Ga15  1  0.00000000  0.00000000  0.66666700  1
  O  O16  1  0.82666700  0.17333300  0.08500000  1
  O  O17  1  0.82666700  0.65333300  0.08500000  1
  O  O18  1  0.34666700  0.17333300  0.08500000  1
  O  O19  1  0.00000000  0.00000000  0.91166700  1
  O  O20  1  0.33333300  0.66666700  0.08833300  1
  O  O21  1  0.50666700  0.49333300  0.91500000  1
  O  O22  1  0.50666700  0.01333300  0.91500000  1
  O  O23  1  0.98666700  0.49333300  0.91500000  1
  O  O24  1  0.49333300  0.50666700  0.41833300  1
  O  O25  1  0.49333300  0.98666700  0.41833300  1
  O  O26  1  0.01333300  0.50666700  0.41833300  1
  O  O27  1  0.66666700  0.33333300  0.24500000  1
  O  O28  1  0.00000000  0.00000000  0.42166700  1
  O  O29  1  0.17333300  0.82666700  0.24833300  1
  O  O30  1  0.17333300  0.34666700  0.24833300  1
  O  O31  1  0.65333300  0.82666700  0.24833300  1
  O  O32  1  0.16000000  0.84000000  0.75166700  1
  O  O33  1  0.16000000  0.32000000  0.75166700  1
  O  O34  1  0.68000000  0.84000000  0.75166700  1
  O  O35  1  0.33333300  0.66666700  0.57833300  1
  O  O36  1  0.66666700  0.33333300  0.75500000  1
  O  O37  1  0.84000000  0.16000000  0.58166700  1
  O  O38  1  0.84000000  0.68000000  0.58166700  1
  O  O39  1  0.32000000  0.16000000  0.58166700  1
