# generated using pymatgen
data_InGaO3
_symmetry_space_group_name_H-M   'P 1'
_cell_length_a   9.84698113
_cell_length_b   9.84700459
_cell_length_c   9.84684485
_cell_angle_alpha   90.00304968
_cell_angle_beta   90.00265291
_cell_angle_gamma   89.99595299
_symmetry_Int_Tables_number   1
_chemical_formula_structural   InGaO3
_chemical_formula_sum   'In16 Ga16 O48'
_cell_volume   954.78225552
_cell_formula_units_Z   16
loop_
 _symmetry_equiv_pos_site_id
 _symmetry_equiv_pos_as_xyz
  1  'x, y, z'
loop_
 _atom_site_type_symbol
 _atom_site_label
 _atom_site_symmetry_multiplicity
 _atom_site_fract_x
 _atom_site_fract_y
 _atom_site_fract_z
 _atom_site_occupancy
  Ga  Ga0  1  0.75000000  0.25000000  0.75000000  1
  Ga  Ga1  1  0.25000000  0.75000000  0.75000000  1
  Ga  Ga2  1  0.75000000  0.75000000  0.25000000  1
  Ga  Ga3  1  0.75000000  0.75000000  0.75000000  1
  Ga  Ga4  1  0.25000000  0.75000000  0.25000000  1
  Ga  Ga5  1  0.75000000  0.25000000  0.25000000  1
  Ga  Ga6  1  0.25000000  0.25000000  0.75000000  1
  Ga  Ga7  1  0.25000000  0.25000000  0.25000000  1
  In  In8  1  0.75000000  0.46600000  0.50000000  1
  Ga  Ga9  1  0.25000000  0.96600000  0.00000000  1
  Ga  Ga10  1  0.75000000  0.53400000  0.00000000  1
  Ga  Ga11  1  0.50000000  0.75000000  0.46600000  1
  In  In12  1  0.00000000  0.25000000  0.96600000  1
  Ga  Ga13  1  0.00000000  0.75000000  0.53400000  1
  Ga  Ga14  1  0.46600000  0.50000000  0.75000000  1
  In  In15  1  0.96600000  0.00000000  0.25000000  1
  Ga  Ga16  1  0.53400000  0.00000000  0.75000000  1
  In  In17  1  0.25000000  0.53400000  0.50000000  1
  In  In18  1  0.75000000  0.03400000  0.00000000  1
  In  In19  1  0.25000000  0.46600000  0.00000000  1
  In  In20  1  0.50000000  0.25000000  0.53400000  1
  In  In21  1  0.00000000  0.75000000  0.03400000  1
  In  In22  1  0.00000000  0.25000000  0.46600000  1
  In  In23  1  0.53400000  0.50000000  0.25000000  1
  In  In24  1  0.03400000  0.00000000  0.75000000  1
  In  In25  1  0.46600000  0.00000000  0.25000000  1
  Ga  Ga26  1  0.25000000  0.03400000  0.50000000  1
  Ga  Ga27  1  0.50000000  0.25000000  0.03400000  1
  In  In28  1  0.03400000  0.50000000  0.25000000  1
  In  In29  1  0.75000000  0.96600000  0.50000000  1
  In  In30  1  0.50000000  0.75000000  0.96600000  1
  In  In31  1  0.96600000  0.50000000  0.75000000  1
  O  O32  1  0.62000000  0.39100000  0.65600000  1
  O  O33  1  0.38000000  0.89100000  0.84400000  1
  O  O34  1  0.88000000  0.60900000  0.15600000  1
  O  O35  1  0.62000000  0.60900000  0.84400000  1
  O  O36  1  0.65600000  0.62000000  0.39100000  1
  O  O37  1  0.84400000  0.38000000  0.89100000  1
  O  O38  1  0.15600000  0.88000000  0.60900000  1
  O  O39  1  0.84400000  0.62000000  0.60900000  1
  O  O40  1  0.39100000  0.65600000  0.62000000  1
  O  O41  1  0.89100000  0.84400000  0.38000000  1
  O  O42  1  0.60900000  0.15600000  0.88000000  1
  O  O43  1  0.60900000  0.84400000  0.62000000  1
  O  O44  1  0.38000000  0.60900000  0.34400000  1
  O  O45  1  0.62000000  0.10900000  0.15600000  1
  O  O46  1  0.12000000  0.39100000  0.84400000  1
  O  O47  1  0.38000000  0.39100000  0.15600000  1
  O  O48  1  0.34400000  0.38000000  0.60900000  1
  O  O49  1  0.15600000  0.62000000  0.10900000  1
  O  O50  1  0.84400000  0.12000000  0.39100000  1
  O  O51  1  0.15600000  0.38000000  0.39100000  1
  O  O52  1  0.60900000  0.34400000  0.38000000  1
  O  O53  1  0.10900000  0.15600000  0.62000000  1
  O  O54  1  0.39100000  0.84400000  0.12000000  1
  O  O55  1  0.39100000  0.15600000  0.38000000  1
  O  O56  1  0.12000000  0.89100000  0.15600000  1
  O  O57  1  0.88000000  0.39100000  0.34400000  1
  O  O58  1  0.38000000  0.10900000  0.65600000  1
  O  O59  1  0.12000000  0.10900000  0.34400000  1
  O  O60  1  0.15600000  0.12000000  0.89100000  1
  O  O61  1  0.34400000  0.88000000  0.39100000  1
  O  O62  1  0.65600000  0.38000000  0.10900000  1
  O  O63  1  0.34400000  0.12000000  0.10900000  1
  O  O64  1  0.89100000  0.15600000  0.12000000  1
  O  O65  1  0.39100000  0.34400000  0.88000000  1
  O  O66  1  0.10900000  0.65600000  0.38000000  1
  O  O67  1  0.10900000  0.34400000  0.12000000  1
  O  O68  1  0.88000000  0.10900000  0.84400000  1
  O  O69  1  0.12000000  0.60900000  0.65600000  1
  O  O70  1  0.62000000  0.89100000  0.34400000  1
  O  O71  1  0.88000000  0.89100000  0.65600000  1
  O  O72  1  0.84400000  0.88000000  0.10900000  1
  O  O73  1  0.65600000  0.12000000  0.60900000  1
  O  O74  1  0.34400000  0.62000000  0.89100000  1
  O  O75  1  0.65600000  0.88000000  0.89100000  1
  O  O76  1  0.10900000  0.84400000  0.88000000  1
  O  O77  1  0.60900000  0.65600000  0.12000000  1
  O  O78  1  0.89100000  0.34400000  0.62000000  1
  O  O79  1  0.89100000  0.65600000  0.88000000  1
