# generated using pymatgen
data_Al7In5O18
_symmetry_space_group_name_H-M   'P 1'
_cell_length_a   5.13127685
_cell_length_b   5.13095289
_cell_length_c   13.80179285
_cell_angle_alpha   89.99160308
_cell_angle_beta   90.00865113
_cell_angle_gamma   120.00157197
_symmetry_Int_Tables_number   1
_chemical_formula_structural   Al7In5O18
_chemical_formula_sum   'Al7 In5 O18'
_cell_volume   314.68984259
_cell_formula_units_Z   1
loop_
 _symmetry_equiv_pos_site_id
 _symmetry_equiv_pos_as_xyz
  1  'x, y, z'
loop_
 _atom_site_type_symbol
 _atom_site_label
 _atom_site_symmetry_multiplicity
 _atom_site_fract_x
 _atom_site_fract_y
 _atom_site_fract_z
 _atom_site_occupancy
  Al  Al0  1  0.00000000  0.00000000  0.14500000  1
  In  In1  1  0.00000000  0.00000000  0.64500000  1
  In  In2  1  0.00000000  0.00000000  0.85500000  1
  Al  Al3  1  0.00000000  0.00000000  0.35500000  1
  Al  Al4  1  0.66666700  0.33333300  0.47833300  1
  In  In5  1  0.66666700  0.33333300  0.97833300  1
  Al  Al6  1  0.66666700  0.33333300  0.18833300  1
  Al  Al7  1  0.66666700  0.33333300  0.68833300  1
  In  In8  1  0.33333300  0.66666700  0.81166700  1
  Al  Al9  1  0.33333300  0.66666700  0.31166700  1
  Al  Al10  1  0.33333300  0.66666700  0.52166700  1
  In  In11  1  0.33333300  0.66666700  0.02166700  1
  O  O12  1  0.30300000  0.00000000  0.25000000  1
  O  O13  1  0.69700000  0.69700000  0.25000000  1
  O  O14  1  0.00000000  0.30300000  0.25000000  1
  O  O15  1  0.30300000  0.30300000  0.75000000  1
  O  O16  1  0.00000000  0.69700000  0.75000000  1
  O  O17  1  0.69700000  0.00000000  0.75000000  1
  O  O18  1  0.96966700  0.33333300  0.58333300  1
  O  O19  1  0.36366700  0.03033300  0.58333300  1
  O  O20  1  0.66666700  0.63633300  0.58333300  1
  O  O21  1  0.96966700  0.63633300  0.08333300  1
  O  O22  1  0.66666700  0.03033300  0.08333300  1
  O  O23  1  0.36366700  0.33333300  0.08333300  1
  O  O24  1  0.63633300  0.66666700  0.91666700  1
  O  O25  1  0.03033300  0.36366700  0.91666700  1
  O  O26  1  0.33333400  0.96966700  0.91666700  1
  O  O27  1  0.63633400  0.96966700  0.41666700  1
  O  O28  1  0.33333300  0.36366700  0.41666700  1
  O  O29  1  0.03033300  0.66666700  0.41666700  1
