# generated using pymatgen
data_In7Ga5O18
_symmetry_space_group_name_H-M   'P 1'
_cell_length_a   5.36218098
_cell_length_b   5.36165290
_cell_length_c   14.27967431
_cell_angle_alpha   89.99959369
_cell_angle_beta   89.99937636
_cell_angle_gamma   120.00062793
_symmetry_Int_Tables_number   1
_chemical_formula_structural   In7Ga5O18
_chemical_formula_sum   'In7 Ga5 O18'
_cell_volume   355.53826496
_cell_formula_units_Z   1
loop_
 _symmetry_equiv_pos_site_id
 _symmetry_equiv_pos_as_xyz
  1  'x, y, z'
loop_
 _atom_site_type_symbol
 _atom_site_label
 _atom_site_symmetry_multiplicity
 _atom_site_fract_x
 _atom_site_fract_y
 _atom_site_fract_z
 _atom_site_occupancy
  O  O0  1  0.30800000  0.00000000  0.25000000  1
  O  O1  1  0.69200000  0.69200000  0.25000000  1
  O  O2  1  0.00000000  0.30800000  0.25000000  1
  O  O3  1  0.30800000  0.30800000  0.75000000  1
  O  O4  1  0.00000000  0.69200000  0.75000000  1
  O  O5  1  0.69200000  0.00000000  0.75000000  1
  O  O6  1  0.97466700  0.33333300  0.58333300  1
  O  O7  1  0.35866700  0.02533300  0.58333300  1
  O  O8  1  0.66666700  0.64133300  0.58333300  1
  O  O9  1  0.97466700  0.64133300  0.08333300  1
  O  O10  1  0.66666700  0.02533300  0.08333300  1
  O  O11  1  0.35866700  0.33333300  0.08333300  1
  O  O12  1  0.64133400  0.66666700  0.91666700  1
  O  O13  1  0.02533300  0.35866700  0.91666700  1
  O  O14  1  0.33333300  0.97466700  0.91666700  1
  O  O15  1  0.64133300  0.97466700  0.41666700  1
  O  O16  1  0.33333300  0.35866700  0.41666700  1
  O  O17  1  0.02533300  0.66666700  0.41666700  1
  In  In18  1  0.00000000  0.00000000  0.14900000  1
  Ga  Ga19  1  0.00000000  0.00000000  0.64900000  1
  In  In20  1  0.00000000  0.00000000  0.85100000  1
  In  In21  1  0.00000000  0.00000000  0.35100000  1
  Ga  Ga22  1  0.66666700  0.33333300  0.48233300  1
  In  In23  1  0.66666700  0.33333300  0.98233300  1
  Ga  Ga24  1  0.66666700  0.33333300  0.18433300  1
  In  In25  1  0.66666700  0.33333300  0.68433300  1
  In  In26  1  0.33333300  0.66666700  0.81566700  1
  In  In27  1  0.33333300  0.66666700  0.31566700  1
  Ga  Ga28  1  0.33333300  0.66666700  0.51766700  1
  Ga  Ga29  1  0.33333300  0.66666700  0.01766700  1
