# generated using pymatgen
data_Al9In2GaO18
_symmetry_space_group_name_H-M   'P 1'
_cell_length_a   4.96043165
_cell_length_b   4.96016904
_cell_length_c   13.43834255
_cell_angle_alpha   89.98854677
_cell_angle_beta   90.01228082
_cell_angle_gamma   120.00162372
_symmetry_Int_Tables_number   1
_chemical_formula_structural   Al9In2GaO18
_chemical_formula_sum   'Al9 In2 Ga1 O18'
_cell_volume   286.34207509
_cell_formula_units_Z   1
loop_
 _symmetry_equiv_pos_site_id
 _symmetry_equiv_pos_as_xyz
  1  'x, y, z'
loop_
 _atom_site_type_symbol
 _atom_site_label
 _atom_site_symmetry_multiplicity
 _atom_site_fract_x
 _atom_site_fract_y
 _atom_site_fract_z
 _atom_site_occupancy
  Al  Al0  1  0.00000000  0.00000000  0.14784400  1
  Al  Al1  1  0.00000000  0.00000000  0.64784400  1
  Ga  Ga2  1  0.00000000  0.00000000  0.85215600  1
  In  In3  1  0.00000000  0.00000000  0.35215600  1
  Al  Al4  1  0.66666700  0.33333300  0.48117700  1
  Al  Al5  1  0.66666700  0.33333300  0.98117700  1
  Al  Al6  1  0.66666700  0.33333300  0.18548900  1
  Al  Al7  1  0.66666700  0.33333300  0.68548900  1
  Al  Al8  1  0.33333300  0.66666700  0.81451100  1
  Al  Al9  1  0.33333300  0.66666700  0.31451100  1
  In  In10  1  0.33333300  0.66666700  0.51882300  1
  Al  Al11  1  0.33333300  0.66666700  0.01882300  1
  O  O12  1  0.69364000  0.00000000  0.25000000  1
  O  O13  1  0.30636000  0.30636000  0.25000000  1
  O  O14  1  0.00000000  0.69364000  0.25000000  1
  O  O15  1  0.69364000  0.69364000  0.75000000  1
  O  O16  1  0.00000000  0.30636000  0.75000000  1
  O  O17  1  0.30636000  0.00000000  0.75000000  1
  O  O18  1  0.36030700  0.33333300  0.58333300  1
  O  O19  1  0.97302700  0.63969300  0.58333300  1
  O  O20  1  0.66666700  0.02697300  0.58333300  1
  O  O21  1  0.36030700  0.02697300  0.08333300  1
  O  O22  1  0.66666700  0.63969300  0.08333300  1
  O  O23  1  0.97302700  0.33333300  0.08333300  1
  O  O24  1  0.02697300  0.66666700  0.91666700  1
  O  O25  1  0.63969300  0.97302700  0.91666700  1
  O  O26  1  0.33333300  0.36030700  0.91666700  1
  O  O27  1  0.02697300  0.36030700  0.41666700  1
  O  O28  1  0.33333300  0.97302700  0.41666700  1
  O  O29  1  0.63969300  0.66666700  0.41666700  1
