# generated using pymatgen
data_AlIn(GaO3)2
_symmetry_space_group_name_H-M   'P 1'
_cell_length_a   3.24341356
_cell_length_b   3.24331562
_cell_length_c   12.11605089
_cell_angle_alpha   90.00883352
_cell_angle_beta   90.00371472
_cell_angle_gamma   119.99374289
_symmetry_Int_Tables_number   1
_chemical_formula_structural   AlIn(GaO3)2
_chemical_formula_sum   'Al1 In1 Ga2 O6'
_cell_volume   110.38514455
_cell_formula_units_Z   1
loop_
 _symmetry_equiv_pos_site_id
 _symmetry_equiv_pos_as_xyz
  1  'x, y, z'
loop_
 _atom_site_type_symbol
 _atom_site_label
 _atom_site_symmetry_multiplicity
 _atom_site_fract_x
 _atom_site_fract_y
 _atom_site_fract_z
 _atom_site_occupancy
  In  In0  1  0.00000000  0.00000000  0.50000000  1
  Al  Al1  1  0.00000000  0.00000000  0.00000000  1
  Ga  Ga2  1  0.33330000  0.66660000  0.25000000  1
  Ga  Ga3  1  0.66670000  0.33340000  0.75000000  1
  O  O4  1  0.00000000  0.00000000  0.25000000  1
  O  O5  1  0.00000000  0.00000000  0.75000000  1
  O  O6  1  0.33330000  0.66660000  0.41390000  1
  O  O7  1  0.66670000  0.33340000  0.58610000  1
  O  O8  1  0.66670000  0.33340000  0.91390000  1
  O  O9  1  0.33330000  0.66660000  0.08610000  1
