# generated using pymatgen
data_AlIn(GaO3)2
_symmetry_space_group_name_H-M   'P 1'
_cell_length_a   12.29790636
_cell_length_b   3.11893700
_cell_length_c   6.08199707
_cell_angle_alpha   89.99992170
_cell_angle_beta   104.44789661
_cell_angle_gamma   90.00010519
_symmetry_Int_Tables_number   1
_chemical_formula_structural   AlIn(GaO3)2
_chemical_formula_sum   'Al2 In2 Ga4 O12'
_cell_volume   225.90587639
_cell_formula_units_Z   2
loop_
 _symmetry_equiv_pos_site_id
 _symmetry_equiv_pos_as_xyz
  1  'x, y, z'
loop_
 _atom_site_type_symbol
 _atom_site_label
 _atom_site_symmetry_multiplicity
 _atom_site_fract_x
 _atom_site_fract_y
 _atom_site_fract_z
 _atom_site_occupancy
  In  In0  1  0.90900000  0.00000000  0.20500000  1
  Al  Al1  1  0.09100000  0.00000000  0.79500000  1
  Ga  Ga2  1  0.40900000  0.50000000  0.20500000  1
  Al  Al3  1  0.59100000  0.50000000  0.79500000  1
  Ga  Ga4  1  0.84100000  0.50000000  0.68600000  1
  Ga  Ga5  1  0.15900000  0.50000000  0.31400000  1
  Ga  Ga6  1  0.34100000  0.00000000  0.68600000  1
  In  In7  1  0.65900000  0.00000000  0.31400000  1
  O  O8  1  0.83500000  0.00000000  0.89000000  1
  O  O9  1  0.16500000  0.00000000  0.11000000  1
  O  O10  1  0.33500000  0.50000000  0.89000000  1
  O  O11  1  0.66500000  0.50000000  0.11000000  1
  O  O12  1  0.82700000  0.00000000  0.43700000  1
  O  O13  1  0.17300000  0.00000000  0.56300000  1
  O  O14  1  0.32700000  0.50000000  0.43700000  1
  O  O15  1  0.67300000  0.50000000  0.56300000  1
  O  O16  1  0.00400000  0.50000000  0.74300000  1
  O  O17  1  0.99600000  0.50000000  0.25700000  1
  O  O18  1  0.50400000  0.00000000  0.74300000  1
  O  O19  1  0.49600000  0.00000000  0.25700000  1
