# generated using pymatgen
data_AlGaO3
_symmetry_space_group_name_H-M   'P 1'
_cell_length_a   4.93596008
_cell_length_b   4.93560878
_cell_length_c   13.37618477
_cell_angle_alpha   89.99233398
_cell_angle_beta   90.00891071
_cell_angle_gamma   120.00087536
_symmetry_Int_Tables_number   1
_chemical_formula_structural   AlGaO3
_chemical_formula_sum   'Al6 Ga6 O18'
_cell_volume   282.20936479
_cell_formula_units_Z   6
loop_
 _symmetry_equiv_pos_site_id
 _symmetry_equiv_pos_as_xyz
  1  'x, y, z'
loop_
 _atom_site_type_symbol
 _atom_site_label
 _atom_site_symmetry_multiplicity
 _atom_site_fract_x
 _atom_site_fract_y
 _atom_site_fract_z
 _atom_site_occupancy
  Ga  Ga0  1  0.00000000  0.00000000  0.14784400  1
  Ga  Ga1  1  0.00000000  0.00000000  0.64784400  1
  Al  Al2  1  0.00000000  0.00000000  0.85215600  1
  Al  Al3  1  0.00000000  0.00000000  0.35215600  1
  Al  Al4  1  0.66666700  0.33333300  0.48117700  1
  Al  Al5  1  0.66666700  0.33333300  0.98117700  1
  Al  Al6  1  0.66666700  0.33333300  0.18548900  1
  Ga  Ga7  1  0.66666700  0.33333300  0.68548900  1
  Ga  Ga8  1  0.33333300  0.66666700  0.81451100  1
  Al  Al9  1  0.33333300  0.66666700  0.31451100  1
  Ga  Ga10  1  0.33333300  0.66666700  0.51882300  1
  Ga  Ga11  1  0.33333300  0.66666700  0.01882300  1
  O  O12  1  0.69364000  0.00000000  0.25000000  1
  O  O13  1  0.30636000  0.30636000  0.25000000  1
  O  O14  1  0.00000000  0.69364000  0.25000000  1
  O  O15  1  0.69364000  0.69364000  0.75000000  1
  O  O16  1  0.00000000  0.30636000  0.75000000  1
  O  O17  1  0.30636000  0.00000000  0.75000000  1
  O  O18  1  0.36030700  0.33333300  0.58333300  1
  O  O19  1  0.97302700  0.63969400  0.58333300  1
  O  O20  1  0.66666700  0.02697300  0.58333300  1
  O  O21  1  0.36030700  0.02697300  0.08333300  1
  O  O22  1  0.66666700  0.63969300  0.08333300  1
  O  O23  1  0.97302700  0.33333300  0.08333300  1
  O  O24  1  0.02697300  0.66666700  0.91666700  1
  O  O25  1  0.63969300  0.97302700  0.91666700  1
  O  O26  1  0.33333300  0.36030700  0.91666700  1
  O  O27  1  0.02697300  0.36030700  0.41666700  1
  O  O28  1  0.33333400  0.97302700  0.41666700  1
  O  O29  1  0.63969400  0.66666700  0.41666700  1
