# generated using pymatgen
data_Al5In4Ga7O24
_symmetry_space_group_name_H-M   'P 1'
_cell_length_a   10.28065130
_cell_length_b   5.95555827
_cell_length_c   14.67091884
_cell_angle_alpha   90.94563229
_cell_angle_beta   91.09856490
_cell_angle_gamma   30.33079926
_symmetry_Int_Tables_number   1
_chemical_formula_structural   Al5In4Ga7O24
_chemical_formula_sum   'Al5 In4 Ga7 O24'
_cell_volume   453.52872413
_cell_formula_units_Z   1
loop_
 _symmetry_equiv_pos_site_id
 _symmetry_equiv_pos_as_xyz
  1  'x, y, z'
loop_
 _atom_site_type_symbol
 _atom_site_label
 _atom_site_symmetry_multiplicity
 _atom_site_fract_x
 _atom_site_fract_y
 _atom_site_fract_z
 _atom_site_occupancy
  Ga  Ga0  1  0.83333300  0.66666700  0.20833300  1
  In  In1  1  0.50000000  0.66666700  0.79166700  1
  Al  Al2  1  0.16666700  0.66666700  0.12500000  1
  Ga  Ga3  1  0.16666700  0.66666700  0.87500000  1
  Ga  Ga4  1  0.50000000  0.66666700  0.16666700  1
  Ga  Ga5  1  0.83333300  0.66666700  0.83333300  1
  In  In6  1  0.83333300  0.16666700  0.33333300  1
  Ga  Ga7  1  0.00000000  0.16666700  0.66666700  1
  Ga  Ga8  1  0.33333300  0.66666700  0.33333300  1
  In  In9  1  0.00000000  0.66666700  0.66666700  1
  Al  Al10  1  0.50000000  0.66666700  0.54166700  1
  Al  Al11  1  0.83333300  0.66666700  0.45833300  1
  In  In12  1  0.16666700  0.66666700  0.50000000  1
  Al  Al13  1  0.66666700  0.16666700  0.00000000  1
  Ga  Ga14  1  0.16666700  0.16666700  0.00000000  1
  Al  Al15  1  0.66666700  0.66666700  0.00000000  1
  O  O16  1  0.66000000  0.18666700  0.25166700  1
  O  O17  1  0.15333300  0.18666700  0.74833300  1
  O  O18  1  0.83333300  0.66666700  0.07833300  1
  O  O19  1  0.50000000  0.66666700  0.92166700  1
  O  O20  1  0.18000000  0.14666700  0.25166700  1
  O  O21  1  0.67333300  0.14666700  0.74833300  1
  O  O22  1  0.66000000  0.66666700  0.25166700  1
  O  O23  1  0.67333300  0.66666700  0.74833300  1
  O  O24  1  0.16666700  0.66666700  0.25500000  1
  O  O25  1  0.16666700  0.66666600  0.74500000  1
  O  O26  1  0.34000000  0.14666700  0.08166700  1
  O  O27  1  0.51333300  0.14666700  0.91833300  1
  O  O28  1  0.82000000  0.18666700  0.08166700  1
  O  O29  1  0.99333300  0.18666700  0.91833300  1
  O  O30  1  0.34000000  0.66666700  0.08166700  1
  O  O31  1  0.99333300  0.66666700  0.91833300  1
  O  O32  1  0.32666700  0.18666700  0.58500000  1
  O  O33  1  0.48666700  0.18666700  0.41500000  1
  O  O34  1  0.50000000  0.66666700  0.41166700  1
  O  O35  1  0.83333300  0.66666700  0.58833300  1
  O  O36  1  0.84666700  0.14666700  0.58500000  1
  O  O37  1  0.00666700  0.14666700  0.41500000  1
  O  O38  1  0.32666700  0.66666700  0.58500000  1
  O  O39  1  0.00666700  0.66666700  0.41500000  1
